  129
       -218.85922872
 O          2.1113772381        4.2209104522        0.9676134773
 H          2.0320140125        3.6958251032        1.7728244005
 H          2.7935027122        3.7851528253        0.4319606300
 O          4.8309955485        1.5784607774       -2.8656400220
 H          4.2252360678        0.9787109527       -3.3417861387
 H          5.2644581570        2.1204925655       -3.5262928944
 O         -0.7885562072       -4.2385322748       -1.7105293928
 H          0.1521735226       -3.9897963341       -1.7228751106
 H         -1.2067799636       -3.6066860988       -2.3212910259
 O         -0.7865759132        0.9534652408        3.3540915052
 H         -1.5325333326        1.5982234557        3.4638347987
 H         -0.7231480298        0.8042428037        2.4041231466
 O          1.7270978294        1.8447332189        2.6745994408
 H          1.0363456699        1.8347413367        3.3518694997
 H          1.2335192549        1.7671688578        1.8296497712
 O         -4.4079469674        0.7329938120        2.1401808488
 H         -4.2607975047       -0.1092523509        2.6041231135
 H         -5.3305903972        0.6747941306        1.7745576935
 O         -1.6886325648       -2.1319964001       -3.2154552075
 H         -2.1955683391       -2.3378478088       -4.0012594177
 H         -2.3398001622       -1.8138134032       -2.5489427761
 O         -1.1376948303        3.5934987200       -2.6943147413
 H         -0.6333302987        4.2032590739       -2.1411869384
 H         -2.0212060874        3.5315161442       -2.2927036081
 O          3.7590798272        2.5520877374       -0.4801005120
 H          4.1170859988        2.4431225688       -1.3722457473
 H          3.6033784673        1.6402328299       -0.1630959473
 O          1.5021660667       -2.8219631883       -1.6801389229
 H          1.8506649576       -2.8154416517       -0.7614997375
 H          2.3145547665       -2.7977206479       -2.2368173737
 O         -4.0280880136        1.2731419788       -3.8612242943
 H         -4.4315050771        1.7562987566       -4.5835014800
 H         -4.6943235878        0.6401809055       -3.5367025569
 O         -5.6421839101       -0.4128812152       -2.5046276021
 H         -4.8395470080       -0.7992564820       -2.0830151082
 H         -6.3686497100       -0.9449612442       -2.1638877918
 O          0.0347099000        5.0929890706       -0.4923561119
 H          0.0492764292        6.0510489602       -0.4776160722
 H          0.8184210399        4.8030294618        0.0284441437
 O         -2.7090359288        0.6404226779        0.1885514515
 H         -3.3939816487        0.7275045909        0.9081683252
 H         -1.9717698085        0.1625693941        0.6027074191
 O          1.3008896076       -1.0180860758        2.6182186774
 H          1.5874982568       -1.4727419520        3.4342030423
 H          1.5834651821       -0.0959307296        2.7076200433
 O          2.5495532778       -2.2886360869        4.6092380608
 H          2.5136964510       -3.2170959412        4.8409106275
 H          3.4601022885       -2.1088377076        4.3052470419
 O         -1.3904932693       -1.5451516109        4.0614641077
 H         -1.1578704243       -1.6873424176        4.9787745320
 H         -1.1312885606       -0.6157808843        3.8514451283
 O          4.3047244538        0.8613442131        2.8346373582
 H          4.9689664999        1.4761693762        2.4370731787
 H          3.4949761476        1.3712519592        2.9869060273
 O          3.7895982557       -0.0369503969        0.3889658307
 H          3.9355074417        0.1773369400        1.3375734340
 H          4.6885791779       -0.0395447609       -0.0136754859
 O         -6.1933971778        1.9558644561       -1.1537504065
 H         -5.3543239929        2.4335590271       -1.1288118481
 H         -6.0556651706        1.1809196029       -1.7251283963
 O          0.6420637047       -0.6978084893       -4.3218762753
 H          0.2443774762       -1.5506309728       -4.1225940346
 H         -0.0522918963       -0.0386891205       -4.1410704941
 O         -3.4329945891        2.6152784563       -1.5117195719
 H         -3.1350712594        1.8718413496       -0.9539087865
 H         -3.6572329693        2.2167587950       -2.3715676797
 O         -1.3138965235        0.9120535684       -3.3302710740
 H         -2.2349206924        0.8525933592       -3.6223580950
 H         -1.1280797649        1.8660063153       -3.2700381812
 O         -1.5920511391       -3.7882624491        0.7178924481
 H         -1.3120699390       -4.0001433668       -0.2195830833
 H         -1.2561327224       -4.4964833329        1.2670564658
 O          6.1557310488        0.2520496762       -0.7696463194
 H          5.8645635951        0.6915490342       -1.5834352885
 H          6.3106065590       -0.6849533300       -0.9883333317
 O          2.5721614129       -2.3869211046        0.7037085372
 H          3.0865796386       -1.5887374232        0.4530257766
 H          2.0193827303       -2.0696377586        1.4430077526
 O          5.8947031860        2.2691710391        1.2671331905
 H          6.3739412356        1.6312654264        0.7237387829
 H          5.2390325133        2.6702239750        0.6715266369
 O         -6.7147268696        0.3877324616        0.9801342194
 H         -6.7338173126       -0.4579225157        0.5049939640
 H         -6.7054524298        1.0788552816        0.2885674883
 O         -6.5739506061       -2.0770516531       -0.3914942298
 H         -7.2982692244       -2.6582474053       -0.1569904727
 H         -5.7675992208       -2.4699480277       -0.0180009134
 O          5.0205725316       -1.6105761075        3.6082583931
 H          5.7632351944       -1.5592688024        4.2117028901
 H          4.7927361683       -0.6883107642        3.3701384471
 O          3.8325151098       -2.4927418907       -2.8637758374
 H          3.7895347315       -1.6385867975       -3.3182342098
 H          4.5884917914       -2.4628835304       -2.2530432911
 O          5.9991844204       -2.4216378784       -1.1188261334
 H          5.6998582679       -2.7085708542       -0.2167682295
 H          6.6662759024       -3.0558073759       -1.3844779050
 O         -3.8805585103       -1.7354258073        3.1849355851
 H         -2.9389130324       -1.7144412781        3.4869869361
 H         -4.4059418300       -2.0422200451        3.9244455070
 O         -1.8111651907        3.5610855501        0.7341316984
 H         -2.5354108646        3.4512894335        0.1075893791
 H         -1.2228887391        4.2463713654        0.3592690246
 O         -0.8955935937       -1.1967686537        1.0575440075
 H         -0.1842268041       -1.1713108912        1.7257450416
 H         -1.2070548645       -2.1221895907        1.0295885597
 O          3.2477725700       -0.1491450172       -4.2667685439
 H          3.5268573189       -0.2878564317       -5.1736836329
 H          2.2793628485       -0.3278041087       -4.2643879410
 O         -2.7733407384        2.6454539237        3.2226190718
 H         -2.5213171916        3.1711244019        2.4507973839
 H         -3.5205968333        2.0909946197        2.9394452857
 O         -3.4217462155       -1.3285041399       -1.3648955150
 H         -3.6992002388       -1.9785198582       -0.6862193149
 H         -3.1489872621       -0.5343706970       -0.8406183077
 O         -4.1426286523       -2.8779821580        0.7088744725
 H         -3.3250925722       -3.4082227225        0.7031215686
 H         -4.1292232085       -2.4213460928        1.5707094973
 O          5.1206967235       -3.1769544042        1.2583258537
 H          5.2466667957       -2.6657642346        2.0716073731
 H          4.1605036550       -3.1730325119        1.1001314840
 O         -0.0883172719        1.5156018245        0.7909344124
 H         -0.7932547285        2.1811645728        0.6993467559
 H          0.2256586880        1.3158342590       -0.1089790525
 O          1.0385335397        0.9882749061       -1.5941416462
 H          1.6604929279        0.3005731238       -1.3446123301
 H          0.3421749930        0.5603122092       -2.1089162615
 O          1.5504820948        3.3113294914       -3.3098104295
 H          0.6328566838        3.4702539776       -3.5452743485
 H          1.5056206366        2.6760722606       -2.5819551800
