  129
       -218.86112351
 O          4.1838822816        1.8277726392       -3.1555629133
 H          5.0149676689        1.7663682909       -2.6525049782
 H          3.6719080441        2.5346804212       -2.7250285568
 O         -2.7383529785       -0.0685617879       -0.1989763823
 H         -3.4183036982        0.2741209063        0.4148567900
 H         -2.3727027923        0.7117717519       -0.6569298217
 O          2.6291893083        3.8551665033       -2.0503506313
 H          1.6425727107        3.8497852452       -2.0818040660
 H          2.8990768668        4.6985172304       -2.4162460689
 O         -4.0171369042        3.1343408468        0.2301728980
 H         -4.6834988446        3.8182285582        0.3014426178
 H         -4.3993753619        2.3228931219        0.6219578062
 O          6.3298756322        1.3449443789       -1.4926762336
 H          7.2613086626        1.4624831896       -1.6795407856
 H          6.1835931312        0.3689793468       -1.3933378201
 O          2.2204268742       -1.2085199955        1.3609024444
 H          3.0643736387       -1.6882382776        1.2610653552
 H          1.4902296193       -1.8824770362        1.3234492974
 O          1.8861254153        1.5323701565        1.7769181266
 H          1.9351068747        1.7806176761        2.7311092320
 H          2.3525447907        0.6912032265        1.7056089359
 O         -1.4005484269       -0.4032532211        3.7129322963
 H         -1.1146478292       -0.1474358491        2.8030145251
 H         -0.9155740741       -1.2157457516        3.9340808494
 O          0.3739331057       -3.0335316982        1.4820462302
 H          0.5591146793       -3.6865550912        0.7658843335
 H         -0.5352685070       -2.7231599622        1.2866643460
 O         -0.0513465265        4.8661518479        0.6811275708
 H         -0.0881662536        5.7657845769        1.0060431188
 H          0.9039078218        4.5764694996        0.7643675729
 O         -4.0382844957       -0.3355293867        3.6611059774
 H         -4.3305834369       -0.0771352783        4.5353673164
 H         -3.0485898296       -0.3766765117        3.6961484227
 O         -3.4472260792        0.7454345219       -3.6070087066
 H         -3.8648542493        0.0178456465       -3.0853186993
 H         -4.0750829561        0.9916665929       -4.2863882047
 O         -4.7918241447        0.7975112225        1.3233218822
 H         -4.5682039410        0.4847940311        2.2217189654
 H         -5.4173883403        0.1507275045        0.9519693695
 O          1.3466464090       -1.2216175022       -4.6399982927
 H          0.3759265920       -1.0939434048       -4.7091808844
 H          1.7282892679       -0.4551274475       -5.0955658050
 O         -1.7059638822        3.0342474914        1.7868994552
 H         -1.0958155262        3.7043883240        1.4204389831
 H         -2.5415926217        3.1509248485        1.3094252581
 O         -1.4010953956       -2.5912707098       -2.3553459495
 H         -0.6667068982       -3.1409807963       -2.6632286810
 H         -1.0321870094       -2.0700542129       -1.6235814954
 O          2.6610222557        1.1030606538       -5.3582165836
 H          2.9080117857        1.4980496771       -6.1942707408
 H          3.2429403803        1.4825114011       -4.6813910248
 O          0.1346804871       -2.6632530206        4.1255579704
 H         -0.1754762391       -3.4380167471        4.5941710474
 H          0.2649849111       -2.9280767096        3.1891374113
 O          2.4090533004        4.0423162953        0.7375266386
 H          2.7053884352        3.9416122856       -0.1818089005
 H          2.3750293149        3.1406785622        1.0978789413
 O         -2.1530627122       -2.4446705238        0.9036257666
 H         -2.2265277753       -1.5827773412        0.4571122504
 H         -2.9941659838       -2.5502803607        1.4116091868
 O         -4.5118580003       -2.5473561007        2.0575964090
 H         -5.1263031694       -2.2164375371        1.3813914971
 H         -4.4708529876       -1.8653568361        2.7457619922
 O          3.5947086879       -0.8828273123       -3.0144077767
 H          2.8784947212       -1.1473666452       -3.6145726980
 H          3.9141922619       -0.0230187239       -3.3383285796
 O          4.9190049396       -0.5923693326        3.3573357413
 H          4.0993473639       -0.7683357269        3.8452930256
 H          4.9546648813        0.3710896871        3.2460855637
 O         -3.9361412739       -3.7039347863       -2.5640249617
 H         -3.4675125638       -3.7084782480       -3.4004619596
 H         -3.2909498774       -4.0340738021       -1.9071184177
 O          4.7532615186       -2.0665249336        1.1944494156
 H          4.9460829561       -1.4945857636        1.9849458436
 H          5.1214967674       -2.9285767254        1.3927819108
 O         -2.1876283824        2.1620654081       -1.6358058513
 H         -2.8411101814        2.6780948154       -1.1382736391
 H         -2.6394997738        1.8161567670       -2.4276226069
 O          4.5677343637        2.1495454132        3.0769657157
 H          3.7465370538        2.2155599554        3.5969678622
 H          5.1499262556        2.8369208285        3.4029980248
 O         -2.2387259420       -4.6438604582       -0.5938225246
 H         -2.7036962076       -5.2864677061       -0.0567749431
 H         -2.2094180109       -3.8050904487       -0.0724464760
 O          4.3247743383        1.9516645127        0.2562684506
 H          5.1720534843        1.8837463101       -0.2073370580
 H          4.4940597560        2.0214715873        1.2068258281
 O          5.7483051086       -1.2092816076       -1.2413662290
 H          5.0718689572       -1.4049845660       -1.9025832228
 H          5.4075735885       -1.5128810401       -0.3825124239
 O         -0.5469522391        2.1817518015        4.3006726025
 H         -0.9674318309        2.6269635998        3.5533019628
 H         -0.8879614715        1.2722103866        4.2893385538
 O          2.2275205357       -0.8330087055        4.0666578086
 H          1.5838324185       -1.4504471876        4.4376739617
 H          2.1462229426       -0.9458600619        3.0980728355
 O         -0.0313722633        3.9283080451       -1.9083204151
 H         -0.1449140162        4.3670245956       -1.0480325213
 H         -0.7259142062        3.2522099432       -1.9429160034
 O         -6.0466561846       -1.2900273786        0.0946737461
 H         -5.5111014616       -1.2707133612       -0.7396417659
 H         -6.9177698799       -1.6054823516       -0.1456310494
 O         -0.5881286572        0.6500958505        1.4280581986
 H         -1.1165245493        1.4756248174        1.4760334336
 H          0.3323694365        0.9505337103        1.5925236918
 O         -4.3829730933       -1.1632696879       -1.9737111508
 H         -4.2169770930       -2.1057794723       -2.2266664897
 H         -3.6589848962       -0.9140187490       -1.3571053887
 O          0.5450083988       -4.6149599475       -0.6268300332
 H          0.8683565799       -4.2415472166       -1.4560776478
 H         -0.4098793684       -4.7606941853       -0.7485028725
 O         -1.3407339634       -0.9612829359       -4.4963337125
 H         -1.4811579264       -1.5744860613       -3.7439584555
 H         -1.9449506774       -0.2244165104       -4.3411184602
 O          2.1111780130        1.8784032982        4.3651975007
 H          2.1451466381        0.9185205934        4.5361460437
 H          1.1765798955        2.1393824980        4.5181616992
 O          1.0137846468       -3.6267328612       -3.2905489454
 H          1.2175877837       -2.8201445296       -3.7939222069
 H          1.1588062723       -4.3611268639       -3.8884135570
 O         -0.0513447047       -1.0908231556       -0.6428986677
 H          0.7029712163       -0.5893860813       -1.0004736517
 H         -0.3585932147       -0.5168560184        0.0728204523
 O         -6.2816247040        1.9018646608       -1.1225718123
 H         -5.3975441024        2.2743822333       -1.1858385901
 H         -6.1683312772        0.9581127254       -0.9923285406
 O          1.9873219261        0.6115159060       -1.2716710961
 H          2.5779558978        0.0729829830       -1.8176545736
 H          2.5575427139        1.0711466647       -0.6464800840
