  192
       -320.54506990
 H         -3.3096805680        0.5244286439       -1.2217018619
 C         -3.1634908561       -0.0312794635       -0.2959559635
 H         -4.1351122836       -0.2087904403        0.1683291612
 C         -2.3144029357        0.7801701330        0.6710475427
 H         -2.1571704759        0.2264222196        1.5951831918
 H         -2.8603605295        1.6904522809        0.9106019078
 O         -2.5456560338       -1.2515919890       -0.6546342025
 H         -2.5230803217       -1.8101237789        0.1614417315
 N         -1.0146440662        1.1072336536        0.0653225360
 H         -0.5086789203        1.8016154406        0.6536991944
 H         -1.1542746757        1.4988525100       -0.8897656521
 H         -0.4219369472        0.2545483457       -0.0425226779
 O          3.5371716359       -1.4853547971        1.4331221515
 H          3.6795017846       -2.4415351231        1.3841130212
 H          3.9727541868       -1.1949885890        2.2623100463
 O          4.2719597656        4.5897141368        1.2230636408
 H          4.9750076893        4.1517006298        0.6830130098
 H          4.7179266163        5.2310193777        1.7763577785
 O          2.6814327601        5.5901089964       -0.7943694685
 H          3.3526232935        5.6103929122       -1.4893243136
 H          3.1612116896        5.2926501489       -0.0032616826
 O          1.9333649169       -4.9429206291        1.5989335451
 H          1.6785823905       -4.4177574667        2.3970416413
 H          2.8823728404       -4.8225999160        1.4707957507
 O          3.7019634883        2.6128543977       -1.9266608732
 H          3.9554171342        2.2460675676       -1.0479127845
 H          3.9652825151        1.9380221974       -2.5718911660
 O          7.2279273477       -0.6685108771        2.0889911040
 H          8.1193531077       -1.0138470268        2.0476085902
 H          6.7789487456       -0.9190472639        1.2466944387
 O          1.9406240512        0.5043352322        4.3883419351
 H          2.0476086675       -0.4071825981        4.7050968007
 H          2.7582546663        0.9689074931        4.5941907605
 O         -0.5438474701       -1.6130917877        2.7169167434
 H         -0.9071319890       -1.1161773669        3.5030255668
 H          0.0710864352       -0.9907027885        2.2641988605
 O         -0.5402489817       -5.8647825858        2.5389040606
 H         -0.3898101178       -5.1807119881        3.2021132216
 H          0.3336074667       -6.0559344479        2.1774948665
 O          2.8872898178       -3.1384352167       -1.3699055178
 H          2.9413434477       -2.1618669069       -1.1784387393
 H          2.0249813054       -3.4213169568       -1.0268939718
 O         -0.1546771361        3.2394475503        1.5160785500
 H          0.1009255801        3.7237489628        0.6950415496
 H         -1.0467617052        3.6057973578        1.7329158373
 O          1.2649276055        0.0748909350        1.7468734855
 H          2.0100109412       -0.4850566060        1.4778529128
 H          1.5055394598        0.4093527767        2.6270632247
 O         -8.3917519427        0.1805046475        0.2208348804
 H         -8.5729621090       -0.7534106528       -0.0755618440
 H         -9.2413644044        0.6172194414        0.2766160845
 O         -3.1012210478        0.1742311633       -4.0417616140
 H         -4.0097736165       -0.1876460484       -3.8929045785
 H         -3.0890576050        0.5243552018       -4.9330323908
 O         -4.6828249660        2.7663732056        1.0720931409
 H         -5.2069772545        2.0622957649        1.4887112636
 H         -5.0726764414        2.9098462547        0.1961221512
 O          4.6891300060       -1.9822386039       -4.6821112194
 H          4.9408434519       -2.1836314178       -5.5832932931
 H          3.7605618176       -2.2624489827       -4.5717458296
 O          4.8953252490       -0.7634661687        3.6143013325
 H          4.7082156051        0.1926898072        3.7611429772
 H          5.8023987313       -0.8055988634        3.2754900770
 O         -1.9707146973        5.5801474423       -0.6066690777
 H         -1.8267246526        6.5143285204       -0.7586668538
 H         -1.1118088027        5.1326670244       -0.7639132769
 O         -2.6831938116       -2.6276036045        1.5879541767
 H         -3.5093085509       -2.3543967630        2.0221794340
 H         -1.9199362451       -2.2694472256        2.0991404528
 O         -2.8045884630        3.2835137672        4.4057461521
 H         -2.7596822688        3.8677265757        3.6385617944
 H         -1.8954286831        3.0248477387        4.6036869513
 O          0.4557199982       -3.7935879183       -0.2506928541
 H          1.0154989486       -4.2325853121        0.4383494177
 H         -0.4450187396       -4.1427092901       -0.0504607196
 O          0.3645662287        4.2830915415       -0.8592628151
 H          1.1981048778        4.8014377054       -0.8917429800
 H          0.5581168990        3.4058565517       -1.2500560082
 O          0.2860609232        2.5607023981       -4.2967648190
 H          0.9501418388        3.2120782364       -4.0678119697
 H          0.7260663685        1.6924479873       -4.2939997137
 O          0.3080011208       -1.1182281390       -0.7304305770
 H          0.2945470485       -2.0130213065       -0.3512247554
 H         -0.2731264201       -1.1500095328       -1.5145559611
 O         -3.3897910027        4.0250848336       -2.3963458685
 H         -3.0151762577        4.6525255414       -1.7571055854
 H         -2.7373256783        3.2993176839       -2.4584401996
 O          6.2188732807        1.8757174958        1.8779351764
 H          6.7605954081        1.0716197792        1.9430139227
 H          6.6564299863        2.4914710548        1.2803186313
 O         -0.2938554102       -3.8791593372       -2.9634187041
 H          0.0666003173       -3.8826796447       -2.0609314148
 H         -1.0815705745       -4.4408002976       -2.9095586521
 O          2.4843053296        2.7849183321        2.1527769444
 H          1.5427268448        2.9622926977        2.0039688597
 H          2.9826299404        3.5658681836        1.8552747546
 O         -2.5718919807        4.2764125895        1.7692013592
 H         -3.3724136016        3.7418427364        1.5918001056
 H         -2.5078284844        4.8947948183        1.0246580091
 O          1.1935992914        0.0764142919       -3.6795975511
 H          1.7975340034       -0.6593757072       -3.8506230411
 H          0.3292763339       -0.3591719547       -3.5323165585
 O         -1.8631477435       -4.8650367681        0.4522129270
 H         -1.4941441365       -5.3883750380        1.1985862543
 H         -2.3037801933       -4.1012004831        0.8797775689
 O          2.1437079848       -2.5624753287       -3.9154036650
 H          1.3231935303       -3.0450145553       -4.0629968247
 H          2.4247873005       -2.8208648876       -3.0141529396
 O         -0.9997625908       -1.2872713568       -3.0829051367
 H         -1.8530490366       -0.9682089394       -3.4140722661
 H         -0.9291203746       -2.2529281370       -3.2021584507
 O         -6.1954770833        0.6169570830        1.9674637804
 H         -5.8378114688       -0.2802232842        2.0711462112
 H         -7.0126504584        0.5248025327        1.4567020453
 O          6.2309981144        3.6178746154       -0.3068156582
 H          6.0810722637        4.2609260314       -1.0146172459
 H          6.2741091965        2.7440916413       -0.7576595790
 O         -1.6401410866        1.9662561222       -2.5067746986
 H         -0.9345114703        2.2617703124       -3.1194837879
 H         -2.1447433152        1.2967993493       -2.9981249204
 O          2.9127140095       -2.0028859754        5.0086232526
 H          3.1642781962       -2.2566966580        5.8970163102
 H          3.7222437785       -1.7065691901        4.5519604896
 O         -3.6868686855        0.9241549563        3.4442906911
 H         -3.4768998581        1.8109942833        3.8079500609
 H         -4.6370673969        0.9054931980        3.3168240995
 O         -2.5675352988       -5.1988404502       -2.1032840272
 H         -2.3455720421       -5.1622557149       -1.1466485812
 H         -2.9699124835       -6.0533358275       -2.2597620136
 O          0.9978006303       -3.5635401826        3.6383021599
 H          0.3890405012       -2.8630070581        3.3041164203
 H          1.6435957447       -3.0999693199        4.1875606498
 O          5.7807184464       -1.1095596430       -0.0745260021
 H          4.8904818781       -1.1463437700        0.3318979582
 H          5.7854683450       -1.7518813147       -0.8130526747
 O          3.9468484158        1.3503416918        0.4278476105
 H          4.7873834425        1.4615316640        0.9087656724
 H          3.2572257120        1.7251170057        1.0102409324
 O         -5.4481475930       -0.9492884334       -3.5196202152
 H         -5.0194862621       -1.7476930398       -3.1612577445
 H         -5.7355213154       -0.4260554140       -2.7380688093
 O          4.3677743786        1.8495753862        3.8655440130
 H          3.6338127460        2.2058817912        3.3303560319
 H          5.1646801399        2.0901773160        3.3694574776
 O          4.3961261462        0.3456519941       -3.2144899774
 H          3.8096755239       -0.0729115370       -2.5508454721
 H          4.6012509674       -0.3436484988       -3.8602484919
 O          2.8812689914       -0.5508782652       -1.1601746698
 H          3.2640875491        0.0410933212       -0.4843752529
 H          1.9108624857       -0.5200164150       -1.0242708506
 O         -5.2693062387       -2.0118307739        2.1465183029
 H         -5.8206250926       -2.5548878948        2.7101535364
 H         -5.5191639614       -2.2144483361        1.2133381354
 O          5.5524874390       -2.8421843737       -2.1334754814
 H          4.6521889262       -3.1752603470       -2.0353613751
 H          5.5886764546       -2.4829846064       -3.0299632386
 O          1.1588673093        1.8291143717       -1.5323530610
 H          2.0748795377        2.1521623326       -1.6107638349
 H          1.0745841873        1.1682538237       -2.2379069773
 O         -6.1587156049        0.3502482377       -1.2999723068
 H         -5.8720701821        1.2782189518       -1.3817667361
 H         -7.0330187309        0.3921673615       -0.8702452410
 O          4.3796705208       -4.0170194035        0.7161196231
 H          5.2828325818       -4.2470626678        0.4964504123
 H          3.9237273888       -3.8264478686       -0.1297120437
 O          4.9163032811        4.9356764128       -2.3856294083
 H          4.4538369338        4.0703228323       -2.2928807269
 H          5.1590475663        5.0343193109       -3.3057695185
 O         -8.0938980868       -1.8171576244       -3.4556103417
 H         -7.1865720818       -1.5165039864       -3.6393617386
 H         -8.5273726002       -1.9422307408       -4.2990857417
 O         -8.6166062233       -2.2399386169       -0.7665189411
 H         -8.6308701323       -2.1222850836       -1.7300751294
 H         -7.7178946854       -2.5493512959       -0.5711135862
 O         -5.8826361680       -2.2785897957       -0.4138693642
 H         -5.2453540602       -2.6667307639       -1.0460290270
 H         -5.9517703111       -1.3417207304       -0.6664898918
 O         -0.2132680207        2.1827186824        4.2195239418
 H          0.6059256239        1.7019630518        4.4118150335
 H         -0.1518232458        2.4643168574        3.2992320271
 O         -3.9853906534       -2.8445814448       -2.2275846216
 H         -3.5392734440       -3.7044632451       -2.2883993765
 H         -3.3677139830       -2.2444720197       -1.7499408707
 O          6.3412446797        1.1867386794       -1.4367086467
 H          6.2182223052        0.4188911484       -0.8507900080
 H          5.8205081792        0.9676748291       -2.2255130212
 O         -1.5857413520       -0.2106363356        4.6229379144
 H         -1.1090006721        0.6344235653        4.6601553308
 H         -2.4738477073        0.0343438047        4.2990559242
 O         -5.6022212993        2.9954375797       -1.5090079447
 H         -4.7644755250        3.3802616559       -1.8926592940
 H         -6.3124855869        3.5778423054       -1.7781543927
