  144
       -244.35923262
 O          2.6264455370       -0.8009359402       -4.8202071915
 H          2.0263417344       -0.2597423619       -5.3792337976
 H          3.1959877250       -0.1308108894       -4.4079865147
 O          1.1910268435       -0.7214922455        2.3801323808
 H          0.9395088492        0.0993804704        1.9461402664
 H          2.0217418142       -0.5432895535        2.8692727611
 O          2.0569092552       -1.8876140593        5.2594740092
 H          2.5802295038       -1.1052299895        5.0375926638
 H          2.3852963784       -2.5731942474        4.6619348312
 O         -0.3885134069       -0.9435700233        4.5698186764
 H          0.3595508135       -1.3236009459        5.0706020140
 H         -0.0316106804       -0.8780935600        3.6599628069
 O          3.3562392551        0.0901659658        3.7721028935
 H          4.2143588204        0.1472869083        3.3384774200
 H          2.9772839328        0.9980609527        3.7593373537
 O          4.4693112576        3.0862773855        2.2938582501
 H          3.6117610458        2.9530045593        2.7430781153
 H          4.9966683904        3.6379531052        2.8723115720
 O          2.1135735473        2.4163853730        3.4152970931
 H          1.6532254966        2.2773143175        2.5599703130
 H          1.3972721086        2.3306721591        4.0880851475
 O         -3.7948544916       -4.9231746146       -2.3062566714
 H         -2.8954053716       -4.5822305348       -2.4544730461
 H         -4.2109598077       -4.9719370346       -3.1671248436
 O          2.1804148284        4.7390302434       -2.0048809988
 H          1.4435605198        4.6524307251       -1.3828938286
 H          2.9826841729        4.6013425512       -1.4672390339
 O          4.2518935204        4.0365451253       -0.3669026023
 H          4.2348466517        3.8885454699        0.5875715259
 H          4.4738353142        3.1700140309       -0.7449078518
 O          0.8522254279        1.8077399848        1.1217148473
 H          0.6189825018        2.6180469760        0.6085077842
 H          1.4695607108        1.3126160069        0.5411088199
 O         -1.5656085609        2.1573573780        2.5070419641
 H         -0.7981770807        1.8397561577        2.0111149086
 H         -1.9820967111        2.8190259910        1.9271725405
 O         -0.2061909753       -4.4825473642       -0.1578548525
 H         -0.0541021382       -5.4238204608       -0.0704854060
 H          0.3019501905       -4.0468961150        0.5635925451
 O          6.6860825036       -0.1545008085       -0.5572793861
 H          6.2306194660       -1.0211169364       -0.7456901424
 H          7.6022867139       -0.2703120472       -0.8068292973
 O          0.9694725749        1.0363895244       -5.8709292026
 H          1.1868369125        1.8027148316       -5.3227797806
 H          0.0794612110        0.7657601773       -5.6011957049
 O         -1.3401210119       -3.7035086546       -2.5945905605
 H         -0.7532790165       -3.2585483724       -3.2337248105
 H         -0.8070790014       -3.9352383698       -1.8184651252
 O         -2.7977086762       -1.6530745230       -1.6159390489
 H         -2.2932865639       -2.3677718011       -2.0522769800
 H         -3.4897657129       -2.1115084255       -1.0958442809
 O         -4.5498139325       -3.2260562027       -0.3048450559
 H         -3.9173608397       -3.4466138652        0.4034135656
 H         -4.4647348324       -3.9389518069       -0.9633339340
 O         -5.5924165653       -0.8009579218        0.3662922245
 H         -5.9838625283       -0.4626799673       -0.4552303561
 H         -5.3849414405       -1.7347157638        0.2025771699
 O         -2.5144873028        3.8929542222        0.5539416455
 H         -2.7440071184        3.4046544278       -0.2610134731
 H         -3.3608430457        4.0514472379        0.9879140589
 O          0.0716430607        3.7825721847       -0.4353710180
 H         -0.7535347242        4.1154478683       -0.0569671494
 H         -0.1808761888        3.1920782952       -1.1788093979
 O         -3.2084774484        2.2606684509       -1.5671626426
 H         -3.1783330656        1.5653504897       -0.8601120927
 H         -4.1423001545        2.6019654031       -1.5205811073
 O          1.6074014358        2.7768262714       -3.6757625656
 H          1.8645628615        3.5884679813       -3.1686645278
 H          0.8051490338        2.4604058742       -3.2298785025
 O         -0.6348539694        1.9301611684       -2.2896081078
 H         -1.5704365128        2.1656545315       -2.1807298164
 H         -0.4968069581        1.0899966153       -1.7037871993
 O          3.5895442844       -2.7334754384       -3.1029321258
 H          3.2754341024       -2.1117652403       -3.7815318277
 H          3.5293230730       -3.6071120291       -3.4894959833
 O         -2.9305091559        0.1068808447        3.7074220133
 H         -2.5805830249        0.9447614516        3.3471537467
 H         -2.3741539179       -0.1281838762        4.4563436056
 O         -3.3111812749        0.5884496735        0.4171114531
 H         -4.1214934082        0.0351187168        0.3912890664
 H         -2.6101189631        0.0252863584        0.8149228670
 O         -2.4154825129       -3.5610687253        1.2926122455
 H         -1.7315793593       -3.9671101302        0.7358238909
 H         -2.1487864461       -3.7040902517        2.2266473967
 O          0.1379332195       -2.0719231645       -4.1796341873
 H         -0.4221335946       -1.2874251310       -4.3320078469
 H          1.0308500095       -1.8010474391       -4.4313946775
 O          3.8753827845        1.4641463226       -3.8182613249
 H          4.3879723930        1.9459787286       -4.4683042507
 H          3.0065962844        1.9455050419       -3.7507477496
 O         -5.6927063638        2.8216975855       -1.0375875244
 H         -5.5624029953        2.8082507486       -0.0649779616
 H         -6.0960813553        1.9744494645       -1.2774059290
 O         -5.6675453963        0.4846153552        2.9355191219
 H         -5.7812339771       -0.0748785688        2.1551363209
 H         -4.8145960705        0.2392886804        3.3208440156
 O          5.3520945086       -2.3726599648       -0.9635790381
 H          4.7531183634       -2.2870125898       -0.1977917232
 H          4.7840656023       -2.4823987391       -1.7432347579
 O          3.3427984944       -3.3454091711        3.1611711332
 H          4.1282153712       -3.8739393459        3.2985783509
 H          3.5727705242       -2.6640474803        2.4884995938
 O          4.6487892746        1.4776776339       -1.2487676474
 H          5.4561089418        0.9589914683       -1.0876897000
 H          4.4593670871        1.4404665423       -2.2081037594
 O         -1.2243775555       -3.5472200998        3.6860649226
 H         -1.1909343089       -2.6972570384        4.1495350656
 H         -0.3797587225       -3.6077491607        3.2064196162
 O         -1.5906496641       -1.0029580213        1.6425625787
 H         -1.8890468229       -1.9049677019        1.4194652618
 H         -2.0389239705       -0.7791564279        2.4796413360
 O         -0.0523884047        1.8164908508        4.8183960669
 H         -0.7067233703        2.1143295316        4.1681233308
 H         -0.1599430027        0.8494336180        4.8816853396
 O          0.9190638078       -3.3577627561        1.9671496918
 H          0.8966366602       -2.3800704097        1.9844690034
 H          1.7635159723       -3.5877653687        2.3863512863
 O         -3.8052568491        0.1824477534       -3.2267147652
 H         -3.5633883549        1.0132998773       -2.7718214265
 H         -3.4410975633       -0.5359824706       -2.6540719987
 O          3.8672579259       -1.5991904705        1.1973600584
 H          4.4857862390       -0.9100862003        1.5095008329
 H          3.1525787501       -1.0944544703        0.7645420356
 O          5.4403778841        0.5113530929        1.8653556723
 H          6.0217179484        0.3986042340        1.0971865245
 H          5.1464343449        1.4396960753        1.8571345698
 O         -4.7889437883        2.6021921652        1.5079537414
 H         -5.3240060688        2.1041963972        2.1525722871
 H         -4.1331555751        1.9384605344        1.2170317941
 O         -6.2356221047        0.2574694190       -2.0980824962
 H         -6.9399578027        0.1148887201       -2.7292290472
 H         -5.3859212475        0.1937649020       -2.6010657200
 O         -1.2779787579        0.2743517060       -4.4073706261
 H         -0.9837950611        0.8743086326       -3.6954053586
 H         -2.2349689422        0.1704134542       -4.2766460402
 O         -0.5228003603       -0.4247111154       -0.8500538484
 H         -0.5448518982       -0.3861464328        0.1145304690
 H         -1.3534260966       -0.8706889692       -1.1013721413
 O          2.0342614005        0.8791178058       -0.9687964175
 H          2.9410723454        1.1906542668       -1.1021005293
 H          2.0411040814       -0.0846457787       -1.0728877990
 O          1.9993250003       -1.8307937405       -0.7929558083
 H          2.4074100438       -2.2608029969       -1.5543564787
 H          1.0458171365       -1.7821931306       -0.9347933689
