  116
       -193.00554098
 H         -1.3594458760        0.8590971860        2.0968744404
 C         -0.7560697354        1.0496885214        1.2111409379
 H         -0.4658852105        2.1045858507        1.1997164193
 C         -1.5610325118        0.7380227711       -0.0491699353
 H         -0.9866282607        1.0221422530       -0.9287685219
 H         -2.4804711023        1.3205663235       -0.0168202525
 N         -1.9144351143       -0.6681710665       -0.1866378513
 H         -1.0698443770       -1.2330657000       -0.2603540640
 H         -2.4416125494       -0.9718187929        0.6240466325
 O          0.3907517017        0.2213996402        1.3481975650
 H          0.9132763366        0.2423419341        0.5018249645
 O          2.7043377360       -1.6435198791        1.0426003985
 H          3.2229019968       -0.8357772827        1.2444381869
 H          3.3579629843       -2.3574840596        0.9901688709
 O          0.5612747534        2.1261905781       -2.4410163847
 H         -0.2986527510        1.8395914440       -2.8066892324
 H          1.2232631991        1.9897398686       -3.1550848933
 O          4.5158074540       -1.8974223721        3.6674409109
 H          4.5694978671       -0.9985607998        3.3193967559
 H          3.5695383408       -2.0511109036        3.8640683848
 O          2.8490683569       -1.0453217339       -2.8096522294
 H          2.1614161350       -1.6355947062       -3.1383704668
 H          2.4920923248       -0.6459984393       -1.9855682605
 O         -3.1993341803        2.7296139374        2.6671870561
 H         -2.7163381714        3.1836916126        1.9597880036
 H         -3.7791927024        2.0990246636        2.1983666360
 O          4.8586501547       -3.2893977749        1.4522349612
 H          5.1592572667       -4.1847383273        1.6024088264
 H          4.8258956150       -2.8466997714        2.3423703916
 O         -1.6718446628       -3.8472268432        0.1908658709
 H         -1.2141759497       -3.3480811647        0.8892503986
 H         -2.6064362481       -3.8394542130        0.4832003684
 O          2.5195081387        1.3293543453       -4.0763854270
 H          2.6939086190        0.4282400054       -3.7270321346
 H          3.2856526834        1.8457076282       -3.7835890047
 O          0.0638743280        0.0477036308       -5.0273591139
 H          0.1870381283       -0.7343091074       -4.4581705973
 H          0.8957157220        0.5337642588       -5.0034209530
 O          1.8706118089        0.4837982273       -0.8227135480
 H          1.3418950971        1.0815733137       -1.3984378399
 H          2.6553864594        1.0086673223       -0.5526015240
 O          4.7790867822        2.2455525726       -2.7002453291
 H          5.0802272379        1.2925441303       -2.6148204215
 H          5.5400812588        2.7323020207       -3.0156000355
 O          1.7765941547       -2.0684847367        3.5844808092
 H          1.9951609091       -1.8101238994        2.6672138135
 H          1.3816443083       -1.2887224213        4.0217804436
 O         -4.4065308865        0.6973569168        1.3658428534
 H         -5.2867621104        0.4707851795        1.0452665266
 H         -4.0650050347       -0.0742242593        1.8426669315
 O          4.1658541239        0.4393108021        1.9557198748
 H          4.2825098160        1.0334342549        1.1938440488
 H          3.4745873405        0.8916575129        2.4897800109
 O         -0.5656123277       -2.2427222318        2.1711405699
 H         -0.2208796241       -1.3963558764        1.8202849031
 H          0.0862789321       -2.5081437633        2.8404510210
 O         -2.2062963707        0.8829185530        4.2985627554
 H         -2.5432279234        1.0481010745        5.1796678606
 H         -2.5238756866        1.6366507418        3.7373129297
 O         -4.1645726645       -3.3311267951        1.0764355503
 H         -3.9993820361       -2.6726827351        1.7631846494
 H         -4.6361312049       -2.8850392673        0.3554735245
 O         -1.7651673981        1.1498882231       -3.4341592401
 H         -1.2417269994        0.7954505178       -4.1858521422
 H         -2.3176135635        0.4128281798       -3.1309872204
 O         -3.0417542487       -1.3005805598        2.7740078928
 H         -2.1838298094       -1.7517438305        2.6350104674
 H         -2.8462309643       -0.6258318288        3.4463568115
 O          0.2619825367       -2.0328450110       -3.2316466885
 H         -0.5078351963       -2.6130039518       -3.2940693135
 H          0.3784309775       -1.9138639506       -2.2673717553
 O          2.0315719589        1.7372972953        2.8771368992
 H          1.4274881223        1.1691817629        2.3547665815
 H          2.1064839212        2.5660119598        2.3762664851
 O         -5.3281042012       -2.1974864777       -1.1961935351
 H         -5.6800179883       -2.8326907159       -1.8196714372
 H         -4.5619177190       -1.7444493576       -1.6503179631
 O          0.6219363625       -2.1409610643       -0.5791047026
 H          0.4192718611       -3.0505458418       -0.3501633732
 H          1.4066907493       -1.8793437189       -0.0579627962
 O         -5.0888775984        1.1870346561       -1.9914502179
 H         -5.5970174008        0.9097654437       -1.2168766210
 H         -4.5175917650        0.4457306723       -2.2256510420
 O         -1.9824743645       -3.4935131847       -2.4469171832
 H         -2.2177759108       -4.3762846679       -2.7317420467
 H         -1.8184860618       -3.5624179437       -1.4749376915
 O          0.3893184433        4.1739909141       -0.6325536368
 H         -0.5141841829        4.1052890661       -0.2698941352
 H          0.4456584100        3.5148206564       -1.3474335024
 O          3.8921546440        2.0926677817       -0.1555298323
 H          3.4064744269        2.8552871170        0.2084865174
 H          4.2276926955        2.3232575032       -1.0428187811
 O         -3.1632125493        3.0926416353       -1.9276331022
 H         -3.9716963930        2.5455507893       -1.8941685371
 H         -2.5836697527        2.6194469046       -2.5404465340
 O         -3.2627369408       -1.0490906684       -2.3405290775
 H         -2.7434176654       -0.8502091903       -1.4702685033
 H         -2.8298235031       -1.8513281766       -2.6706727912
 O          0.5367460039        0.1257695592        4.6357439598
 H          1.0616408671        0.8664474821        4.3068086972
 H         -0.3922311296        0.3545196036        4.4854203680
 O         -2.1657731178        3.9795550947        0.3331262698
 H         -2.5268603584        4.8651295073        0.3995128372
 H         -2.5607508766        3.6000980803       -0.4978529408
 O          2.2794141474        3.8701504187        1.1135837314
 H          2.5237985050        4.7542509129        1.3857257592
 H          1.5344080693        3.9805732932        0.4542982781
 O          5.9212000345       -1.0762174884        0.1446813118
 H          5.6605304072       -1.9631158377        0.4369804296
 H          5.6441276801       -0.4821552106        0.8484714031
 O         -6.6515642148       -0.1583943914       -0.0244210584
 H         -7.5975672234       -0.1960600642       -0.1638543362
 H         -6.2636576094       -0.9662887138       -0.4172591333
 O          5.4681199135       -0.2530052318       -2.4352648419
 H          4.6471543320       -0.7255196005       -2.6402958460
 H          5.7114402666       -0.5259581374       -1.5308601467
