  249
       -422.62922031
 O          7.0444425948       -3.4911311383       -2.1417859465
 H          6.8621904709       -3.8251742999       -1.2417071077
 H          7.4527843097       -2.6225117950       -2.0024221261
 O          0.6388712877        1.4285880030        4.1152552282
 H          0.4859260590        0.7607812302        4.8101490782
 H          1.5965986282        1.3380320475        3.9155246564
 O          6.9640303834        3.2233704650       -1.3536495369
 H          6.2568137338        3.8427762288       -1.1389175918
 H          6.8481547400        2.9781820014       -2.2816031680
 O          7.5839810766        1.2054636555        0.3449824326
 H          7.2433252618        1.6176724059        1.1503574575
 H          7.4142555463        1.8767995545       -0.3460539479
 O         -1.3894188304       -0.7056590360        2.8228791026
 H         -1.1777111339       -0.2397878449        1.9572248724
 H         -0.5939568676       -1.2213597967        3.0304049725
 O         -4.0971489209        1.0807778848        4.4770491247
 H         -3.3426496532        1.6668035496        4.2783399529
 H         -4.3316819581        0.7080049906        3.6092103919
 O         -1.7957722468        4.9497700184        3.5349999792
 H         -1.8691122768        3.9700295641        3.6386448750
 H         -1.0540637415        5.2114200384        4.0856331177
 O          1.3508168150        4.8247473398       -2.0967422868
 H          1.7123675848        3.9104083079       -2.0588042039
 H          1.4893689448        5.1745045482       -1.2054270474
 O          3.7251995433        2.6410171958       -4.2610985170
 H          3.3313896496        1.9636509217       -4.8286415079
 H          3.2838370848        2.5304295685       -3.3906088131
 O          5.3451032003        0.5607551362       -1.6749501802
 H          4.5339626707        0.1559562092       -2.0647266719
 H          5.6872161437        1.1713589189       -2.3647643980
 O          3.1154197286       -0.3455460841       -2.7493970765
 H          2.4332736542       -0.3053068214       -2.0705564357
 H          2.7544271558        0.0035908079       -3.5813574571
 O         -7.0645727263        1.3287935852       -3.1044611167
 H         -6.6524915860        0.4798321740       -2.8038376244
 H         -7.8954818635        1.0975746571       -3.5178264678
 O          3.9165540970       -0.5539598387        1.8669443503
 H          4.8379010472       -0.6224551452        1.5731531286
 H          3.7015391415       -1.4250318929        2.2633458581
 O         -2.1818248793        3.2668870089       -5.1138778540
 H         -3.0720599380        2.9962108462       -4.8541692077
 H         -1.8411348036        3.8071183858       -4.3827125127
 O         -1.1738154539       -3.3930933300        0.0589488226
 H         -1.2241248015       -4.2106373961        0.5994635884
 H         -0.3209497977       -2.9641009658        0.2679561232
 O          1.1811086775       -2.3976144240        0.7765714497
 H          1.9047035054       -3.0211173723        0.5950072882
 H          1.4176745433       -1.5561306753        0.3316282465
 O          2.1348380566       -3.0647047105       -3.1780486240
 H          3.0505039251       -2.7311956584       -3.1534075668
 H          2.1341895168       -3.8953527486       -2.6759687681
 O         -1.1022260811       -4.2402778282        4.0456186433
 H         -1.9739199856       -3.7846113758        4.1762712163
 H         -0.9060682102       -4.6614962632        4.8823161799
 O         -2.8737480884        0.1442159680       -3.6500184695
 H         -2.3035502415       -0.1798376515       -4.3648805300
 H         -2.8444064045       -0.5739589873       -2.9837589815
 O          0.4013709243        0.8916900431       -2.7962717098
 H          0.2239063696        1.0783778206       -3.7454511153
 H         -0.3907914427        1.2416439998       -2.3274144979
 O         -2.4198616962       -1.5400281762       -1.6660717093
 H         -1.4552207952       -1.7048637348       -1.6899373464
 H         -2.8500383753       -2.3560613205       -1.3571666754
 O         -2.7068972035       -6.0004498146       -1.0021985956
 H         -2.0080122123       -5.6790444656       -1.6021484535
 H         -2.2749252904       -6.1547218057       -0.1551271264
 O          6.4775726025       -1.1310458636        1.0462632136
 H          6.6996885504       -1.0613613114        1.9884106825
 H          6.9076091955       -0.3470273461        0.6383819346
 O         -6.6949355800        1.8791458461        4.4607078554
 H         -5.7825457547        1.6566832462        4.7238569940
 H         -6.5875437882        2.4067735190        3.6509722947
 O         -1.4923143545       -5.5552405182        1.6071026050
 H         -2.4406357690       -5.3995012742        1.8320150206
 H         -1.0317516245       -5.3124597345        2.4206145640
 O         -3.1565442836       -2.2992884713        1.5571737460
 H         -2.6149576722       -1.7185469566        2.1242539964
 H         -2.5584260599       -2.5826921430        0.8439698317
 O          4.2559072333        2.1135884858        0.1524696465
 H          4.4272881210        3.0107778958       -0.1950991351
 H          4.7392622059        1.5015908361       -0.4486705981
 O          3.4268753190       -2.9114340350        3.0480715522
 H          2.5332073287       -2.8009175243        3.4058599864
 H          4.0483935529       -2.7086477830        3.7973681774
 O          4.8189632266       -2.5119044749       -3.1513350094
 H          5.6168820685       -3.0184262906       -2.8604297781
 H          5.1569240663       -1.7759301051       -3.6801181374
 O         -5.8844219673       -0.8445931691       -2.2072670832
 H         -5.2266433158       -0.4797186663       -1.5661800502
 H         -5.4139657002       -1.5098400257       -2.7421782378
 O          7.6114103602       -0.7892316036       -1.8318980931
 H          6.7481258939       -0.3489706234       -1.6356397434
 H          8.2629380749       -0.2785628402       -1.3473426777
 O          2.0411335721       -5.2047555482       -1.4563641568
 H          2.4937625290       -4.8297612003       -0.6762323163
 H          2.4634284458       -6.0457508519       -1.6304525695
 O          3.2695037816        1.2398174418        3.7293600066
 H          3.5551926504        0.6067176172        3.0343385640
 H          3.5023970328        2.1289841151        3.4114099657
 O         -2.7731895803        4.9643605706       -0.6642208832
 H         -3.2580225558        5.3429602837        0.0819295624
 H         -3.3413293385        4.2211263287       -0.9603256669
 O         -2.8287901162        2.4471152321        1.0092394401
 H         -3.2465709000        3.3106509780        1.1669079583
 H         -2.5015125442        2.4686222277        0.1031451592
 O         -4.7053292068       -3.0074668950       -3.3667389861
 H         -4.4591995692       -3.3049847456       -2.4497309932
 H         -5.2922557125       -3.6723893282       -3.7250366002
 O          6.3792287441       -3.9142066536        0.4526569213
 H          6.4731529250       -2.9986919183        0.7561666541
 H          5.4578207549       -4.1652187557        0.5882193191
 O         -0.7187990391       -4.5931863043       -2.2550850869
 H         -0.8878707079       -4.0072579571       -1.4792986568
 H          0.1888900390       -4.8942794135       -2.1453895266
 O         -5.7955148416        2.9562086750        2.0729091762
 H         -6.3189099830        2.9856989067        1.2633716018
 H         -5.2518426671        2.1450179535        1.9981581211
 O          6.2285541348        1.9845584402       -3.7466807231
 H          6.4197909192        1.1804507584       -4.2491711096
 H          5.3467319194        2.3012439495       -4.0502249526
 O         -3.9597126303        4.8969478109        1.7698828799
 H         -4.7258744234        4.3501856188        2.0300810298
 H         -3.4511183767        5.0893298604        2.5656766396
 O          4.2557661136       -1.8423060456       -0.6121332495
 H          5.1070246747       -1.5514221363       -0.2651467827
 H          4.3750788982       -1.9893413633       -1.5736341844
 O         -4.0708338433        0.2303300939       -0.5981017607
 H         -3.9472275193        1.1564316465       -0.8811425690
 H         -3.3226193368       -0.3176781892       -0.9053491238
 O          6.5594614533       -0.1320186388        3.5897612162
 H          6.1791071750        0.6889682706        3.2030928444
 H          7.2718955487        0.1430061125        4.1660553419
 O          4.9527879728       -2.0065689111        4.9476704632
 H          5.5498784953       -1.3896403833        4.4981047464
 H          4.3531090057       -1.4400491875        5.4790746142
 O         -7.6452922903       -1.9460786244       -0.4656782807
 H         -7.1417960667       -2.6356251919       -0.0056352696
 H         -7.0597835025       -1.6204173122       -1.1766389067
 O          1.4556472713       -2.1028750495       -5.5761327718
 H          1.6554163349       -2.4819393811       -4.6923615540
 H          1.4860786814       -2.8284715380       -6.1988411271
 O          0.4549115557       -0.7735018905        5.6822577231
 H         -0.5016436326       -0.8039537511        5.8474073686
 H          0.6197295872       -1.3820518726        4.9459838463
 O          2.3971131714        2.3877680498       -1.9422901332
 H          2.8085263610        2.0548021601       -1.1288407509
 H          1.6826518724        1.7605201460       -2.2004205887
 O          3.4204340395       -3.9846245287        0.5627859647
 H          3.4852317940       -3.7891453838        1.5152221994
 H          3.7678548592       -3.1742127855        0.0943526870
 O         -1.2101156608        4.3580840870       -2.7864318408
 H         -1.7340829891        4.8942823578       -2.1761154219
 H         -0.2710853535        4.5793140543       -2.6178144948
 O         -7.6658332175       -0.4578575249        3.7736689046
 H         -8.3947138050       -0.6569332653        4.3596878872
 H         -7.3101440559        0.4291155299        4.0640716439
 O          1.9231852576        5.2857947235        0.6027447575
 H          2.0436245394        6.0856491025        1.1162087016
 H          0.9992430535        4.9949836564        0.7736993000
 O         -3.9760814604       -3.6523777660       -0.9550217504
 H         -3.5884651034       -4.5541820604       -0.8937621429
 H         -4.6346859570       -3.5524701407       -0.2404539679
 O         -3.8850572367       -4.7250765029        2.3682097306
 H         -3.6648222693       -3.7967667350        2.0873607373
 H         -3.9415887534       -4.6864489141        3.3252726915
 O          2.3094259573        0.5078605322       -5.2595802725
 H          1.4628322123        0.9619031293       -5.4046488536
 H          2.1631422901       -0.4054183110       -5.5472720124
 O         -3.3998307390       -3.0587674086        4.6634822207
 H         -3.0168578900       -2.2564958893        5.0752287601
 H         -4.1364022609       -2.7208239083        4.1199905301
 O         -1.8996883371        2.3005344177        3.5046675953
 H         -2.1561817549        2.1730032500        2.5667488451
 H         -1.0516188788        1.8472867486        3.6417574120
 O         -4.5683509051        2.2190461040       -3.9248939504
 H         -5.5091275555        1.9933729206       -3.8717317572
 H         -4.0814321633        1.3723826399       -3.9171906202
 O         -5.9207747559       -3.5458287694        0.9589845257
 H         -5.7338932935       -2.9258635761        1.6990638706
 H         -5.6779798967       -4.4094449243        1.3099551486
 O         -4.3559924814        2.8617407928       -1.3295772388
 H         -4.4356484390        2.7638198927       -2.3014139113
 H         -5.2610171236        2.8128061143       -0.9706600159
 O         -1.8295793072        1.9169658261       -1.8462368422
 H         -2.3118966330        1.4153607097       -2.5316092983
 H         -1.6787231837        2.8144660524       -2.2090048243
 O         -0.2592382408        1.4309807386       -5.3136483960
 H         -0.9386641760        2.1430382477       -5.3321494604
 H         -0.7137576681        0.6120668318       -5.5602314888
 O         -7.3717534750        0.1406978869        1.1054058525
 H         -7.7388212245       -0.0682703213        1.9779064098
 H         -7.5468851299       -0.6483236483        0.5301774444
 O         -0.6320430980        4.5996652942        1.0824393229
 H         -1.1267490181        4.8712379179        1.8807264299
 H         -1.2752665873        4.6729740141        0.3542091187
 O          3.8018094187        5.2536817599       -3.2957441199
 H          3.8973107157        4.4791497705       -3.8679320317
 H          2.8512256725        5.3184771987       -3.1040467217
 O          3.5196045941        3.7931502765        2.7416679705
 H          3.3840206766        3.9200768619        1.7972087185
 H          2.6652263832        4.0303457811        3.1580550230
 O          4.4862981483        4.6189411912       -0.8084643346
 H          3.7526651047        5.0159892372       -0.3283722906
 H          4.3317373858        4.8590639102       -1.7561086601
 O         -2.1228620389       -3.4237792131       -4.3723722681
 H         -1.6109496112       -3.8301741590       -3.6543664756
 H         -3.0119999898       -3.2508223983       -4.0252798919
 O          6.6611328882       -0.7110457669       -4.3821688152
 H          7.1712146971       -1.2174650082       -5.0136735332
 H          7.1363186834       -0.7689226801       -3.5281007884
 O          0.9574238472        4.0671198262        3.5427051435
 H          0.8011600587        3.1846924947        3.9268634742
 H          0.5248300570        4.0519287853        2.6814427858
 O         -5.4476717807       -1.9869946161        3.1330061653
 H         -6.2629876446       -1.5810647243        3.4710347013
 H         -4.9797646355       -1.2644908391        2.6686743340
 O          3.2491368399       -0.2358419984        6.0493607319
 H          2.3133341418       -0.4476807373        6.1491221066
 H          3.3017972455        0.3981087556        5.3140790069
 O         -2.2753081126       -0.7190795035        5.3321746116
 H         -3.0095640136       -0.0835213036        5.3834001965
 H         -1.9701908181       -0.6289880339        4.4029116219
 O         -4.8541036450        0.3666051247        1.9240912717
 H         -4.3326124872        0.2933053555        1.0998517607
 H         -5.7873992361        0.2672679331        1.6230715747
 O          0.7183562125       -2.3750043282        3.3780791566
 H          0.1154861734       -3.1195965101        3.5732679612
 H          0.8761138845       -2.3846813900        2.4036818167
 O          5.8024339355        2.1130999432        2.3162659236
 H          5.1835494381        2.0252099728        1.5474091163
 H          5.4838157566        2.8842674842        2.7927879316
 O          0.2514381649       -1.5986049649       -1.8240822389
 H          0.3298251142       -0.7274397135       -2.2565439245
 H          0.8547677349       -2.1865179335       -2.3073376868
 O         -1.1396769930       -1.1582872711       -5.3494780068
 H         -1.5708351097       -1.9935837514       -5.0587120014
 H         -0.2077931359       -1.4127728083       -5.4499295486
 O         -6.8943285633        2.3238598597       -0.4912431286
 H         -7.1140764532        2.0972517676       -1.4088754521
 H         -7.1207389053        1.5330622562        0.0307502293
 O          1.9922875424        0.0187243570       -0.0653130406
 H          2.7979005473       -0.0810535125        0.4717573656
 H          1.5074968365        0.7645065868        0.3238351024
 O         -0.9130854498        0.0557346518        0.3024380431
 H         -1.3121101473        0.6679109463       -0.3219093621
 H         -0.4004542387       -0.5754709848       -0.2162097459
 O          0.7095742207        2.1391878046        1.1793887513
 H          0.4744264669        1.7598833455        2.0308679812
 H          0.0302838717        2.7774225226        0.9345503903
