  211
       -356.64609152
 H         -0.4199438094        0.7841408884       -0.0603691558
 O          0.5982136546        0.9126080356       -0.1620508890
 H          0.8260135089        1.8323756159       -0.5649253707
 H          1.0052631980        0.9161712654        0.7761906322
 O          2.7958183156        5.3300210631       -2.1512178585
 H          1.8611088393        5.4969160594       -2.3402922480
 H          2.8672055086        5.3341442113       -1.1891462653
 O          3.1386582358       -0.4226071930       -0.0550942160
 H          4.0111671037       -0.7447511723        0.2195342243
 H          3.2998896419        0.5007202794       -0.3456816849
 O          3.9709412878        1.5853610031        4.9485605337
 H          4.4016955243        1.3342037725        5.7657729769
 H          4.4100453553        1.0801330415        4.2418687018
 O         -1.7875528837        6.3480905415       -1.0528680147
 H         -1.3096069922        6.2409962459       -0.1977638611
 H         -1.8977289804        7.2888036182       -1.1909249484
 O          1.3260273182       -3.3577042484       -1.6163925959
 H          0.4916014864       -3.7302040157       -1.9534189147
 H          1.4037730527       -2.4415589484       -1.9625628886
 O          3.3027027547        4.0189603594        3.4689456911
 H          3.5162120271        3.4961403198        4.2484036378
 H          3.6209985104        3.4704854289        2.7212817730
 O         -1.9420880883       -2.0059730407        1.4890707988
 H         -2.2273029993       -2.3403576158        0.6304237727
 H         -2.1909164936       -2.6642602079        2.1553464687
 O          0.6662713336        4.6861342952        3.4259017201
 H          0.2766660012        4.3769625059        4.2552809729
 H          1.6219254717        4.5049123358        3.5040267223
 O         -3.5963142635        1.4517927521       -5.7343658380
 H         -3.9526449760        2.0005843537       -5.0232353301
 H         -3.5166334388        0.5543033623       -5.3726713163
 O          0.0084098429       -4.6260152402        3.4259371847
 H         -0.0089694605       -4.4088596036        2.4607950096
 H          0.4397433467       -5.4883610104        3.4659457547
 O          3.8796769286        1.9286048669       -1.0536369169
 H          4.1177752416        2.2745541720       -0.1731928502
 H          3.0841495300        2.4213400355       -1.3193485914
 O         -2.4455051237       -4.8673419423       -0.2756978578
 H         -1.6261288421       -4.6606258081        0.2279160724
 H         -3.1696573561       -4.8683343050        0.3677580855
 O          2.4602060324        3.1829020762       -3.7545369537
 H          2.0911514167        3.6659729523       -4.4955952641
 H          2.7464864034        3.8736444105       -3.1171644907
 O         -1.2305814041        3.0523134324       -0.8184587640
 H         -2.0918108093        3.4943948017       -0.8440462929
 H         -1.2970192895        2.2861404799       -1.3951627770
 O          3.4671778528       -4.6909473903        3.0554936731
 H          2.8982913268       -5.4720951814        2.9937785223
 H          3.4966173236       -4.3089583952        2.1700619344
 O         -0.7622237765       -1.2965245262       -1.9504948358
 H         -1.0674476452       -0.3728072573       -2.0216551007
 H         -0.4095481501       -1.5238205820       -2.8307648090
 O          2.9862141901       -2.1948284978       -4.5180159318
 H          2.7990654102       -1.6578386627       -3.7102896864
 H          3.4812558889       -1.6104836006       -5.0946235780
 O         -1.7274910803        3.2911575685       -3.8102404539
 H         -1.7546832591        2.4065555669       -3.3790354701
 H         -2.6493518793        3.5539388218       -3.8918117532
 O          5.8389727247       -0.9111784619        0.3538086296
 H          6.1903043173       -0.2687557011       -0.2677271376
 H          5.8279758684       -1.7529702238       -0.1216122856
 O          0.6662194095       -1.6782040008        0.4047490353
 H          1.5256279452       -1.2366344108        0.3038038017
 H          0.1465398130       -1.4543709386       -0.3887589076
 O         -0.7901320867       -4.8088367579       -2.4995891649
 H         -0.1789050645       -5.5423392772       -2.6579821463
 H         -1.4020908971       -5.0828531946       -1.8035119383
 O         -0.1195165908        3.3018726414        5.7135405513
 H          0.1618884447        3.3616828269        6.6255597293
 H          0.3603877796        2.5364905179        5.3106749485
 O         -2.9998851521       -2.3869063759       -1.0917126179
 H         -2.8516300576       -3.3516133313       -1.0370024307
 H         -2.1807998912       -1.9938419990       -1.4854321115
 O          2.0268889604       -0.9415588927       -2.3970675146
 H          1.5001931906       -0.1348241233       -2.5881253320
 H          2.5527585394       -0.7469981820       -1.5965262909
 O          0.5359892765       -0.9349545617        5.8303841221
 H         -0.3692337490       -1.1557497084        5.5723687590
 H          1.0963280258       -1.6373244167        5.4662875664
 O          1.7951774142        0.8224866468        2.0706007430
 H          1.4233297519        1.0837139984        2.9397126581
 H          2.1532591624       -0.0846881669        2.1919733685
 O         -4.6560381613        1.1034667964       -1.6067131666
 H         -5.1077991797        1.1960234368       -0.7408996332
 H         -4.9348625843        0.2317683099       -1.9370640416
 O         -4.6854348625       -1.5629985610        1.0213178397
 H         -4.0893525899       -1.5552882356        0.2563371006
 H         -4.7786942977       -2.4984921673        1.2589847856
 O          1.9157193204       -3.0138267965        4.5171131714
 H          1.1381677796       -3.5162158348        4.2057466230
 H          2.6664278897       -3.6048925728        4.3308389737
 O         -2.2851176345        4.5448611038        2.2687485770
 H         -2.5773019662        3.8290151828        1.6762899805
 H         -2.3142218535        4.1484177081        3.1585692994
 O         -1.3438461245        1.0100319320        2.8750017720
 H         -0.8382301614        1.6989627796        2.3736857765
 H         -0.7122620485        0.2831049056        3.0547016218
 O         -3.6584302583        4.3126321023       -1.0920026199
 H         -3.9527804015        4.1246272951       -1.9927982526
 H         -3.1737047821        5.1539150237       -1.1013785245
 O          1.8449227846       -5.8702818532       -0.0036405410
 H          1.7274736469       -6.1331035475       -0.9346974037
 H          2.5403943642       -5.1918464931        0.0179598693
 O         -4.3863391158       -4.2726260295        1.6630587879
 H         -3.7679505139       -4.1560163265        2.4150361157
 H         -5.0871103801       -4.8474095269        1.9704421985
 O          2.0781300731        5.0143765542        0.7065231408
 H          2.5285801437        4.8935815412        1.5462039875
 H          1.1936103138        5.3736327264        0.9182153914
 O         -5.9650802618        0.9039716310        0.7100607468
 H         -5.9176807888        1.4046338702        1.5320582505
 H         -5.6815330880        0.0020508213        0.9215077477
 O         -3.3765628477        2.4306990440        0.9464059170
 H         -4.0040439284        2.3025289960        1.6907946155
 H         -3.8181849493        2.9586749757        0.2708390123
 O          1.6159551399       -6.7528567712        2.5716770389
 H          1.8540540363       -7.6716737384        2.6949312312
 H          1.6434441098       -6.5744016285        1.6132198299
 O          3.2364736393        0.6864592422       -4.7406891885
 H          2.3677429842        0.5650069359       -5.1509998745
 H          3.2195596280        1.5885695000       -4.3885774528
 O          5.0280851813        0.0729896212        2.8827455425
 H          4.2768305177       -0.5571813411        2.8096358882
 H          5.6883170931       -0.2702439766        2.2714037836
 O         -3.2554584785       -0.8421801069       -4.2674455500
 H         -4.0823944657       -1.0439829858       -3.8066918611
 H         -2.8234893939       -1.7135141317       -4.4034753488
 O         -2.1563883311        0.9348463873       -2.6127896173
 H         -2.4637900681        0.3201253232       -3.3148483115
 H         -2.9251223996        1.0200014521       -2.0186557423
 O          0.1374293920       -1.1951206353        3.0498319618
 H          0.2093689751       -1.4055916727        2.1007916685
 H         -0.4806129348       -1.8229299590        3.4233784256
 O         -2.2046705057       -1.6198981039        5.0869715240
 H         -2.7260529232       -1.0859948999        4.4354368354
 H         -2.6206352236       -1.4851201406        5.9385895088
 O         -2.5319792433       -3.8020053340        3.5319953615
 H         -1.6752502093       -4.2675561385        3.5961509213
 H         -2.5089889279       -3.1194293773        4.2284290099
 O          4.8389079302       -2.6916418146       -1.4820801783
 H          4.5717336217       -3.3768597359       -2.1138920465
 H          4.7837319507       -1.8372776184       -1.9587271899
 O         -2.5143763454        2.8954621605        4.4245993200
 H         -1.8353705772        3.1543086633        5.0629060781
 H         -2.1110429799        2.1528660788        3.9304638528
 O         -1.0893861804        2.3098689456       -6.2325937993
 H         -1.1412043748        2.8467658472       -5.4197437203
 H         -1.9952095576        1.9496956526       -6.3200604080
 O          2.9281975613       -1.5413702515        2.5179012492
 H          3.0055412569       -2.2087639451        1.8158406968
 H          2.4749159271       -1.9705807492        3.2752714063
 O         -3.5828506905       -0.3169189181        3.2270578186
 H         -3.8873510761       -0.8114690874        2.4429924719
 H         -2.7845054967        0.1888503947        2.9502632448
 O          3.2676347173       -4.4443917220       -3.0056393193
 H          3.2832844903       -3.8823933484       -3.7953694143
 H          2.5817086463       -4.0194153611       -2.4288608722
 O          0.0205567297        2.8281218435        1.5947893891
 H          0.1775964119        3.5739948966        2.2074700362
 H         -0.4803763306        3.1483047002        0.8282105520
 O         -4.5558484785        3.0173608682       -3.4566645561
 H         -5.4495222440        3.2624400204       -3.6980136268
 H         -4.6341316226        2.2995001017       -2.7808425330
 O          3.9720723671        2.2307293547        1.5932829208
 H          3.0855817322        1.8073529017        1.6992644925
 H          4.5720120775        1.5919618260        2.0169136687
 O         -1.8511914386        0.3853102271        0.1357822841
 H         -2.3812786300        1.1326823936        0.4813988688
 H         -1.8605961870       -0.3232640926        0.7969076725
 O          1.2529476506        1.3060908736        4.6254516455
 H          0.9709749811        0.4594753261        5.0529563656
 H          2.1989389368        1.4136530877        4.8242025836
 O          1.4578954235        3.1103363680       -1.0162527706
 H          0.8460241949        3.6448855301       -1.5667512115
 H          1.6765160087        3.6894190306       -0.2536792952
 O         -0.1110713424       -4.2027800483        0.8367693758
 H          0.5685264152       -4.7955380745        0.4593901135
 H          0.1669809121       -3.2799848623        0.6447388341
 O          0.2577537791       -1.8092947619       -4.4760937110
 H          0.2603026536       -0.9905044535       -5.0025024679
 H          1.1621886858       -2.1570710615       -4.5504573979
 O         -4.8770398691        2.0363098199        3.1213624881
 H         -4.3838953589        2.6105818361        3.7219326805
 H         -4.5576213376        1.1342632232        3.3277507982
 O         -2.0319003618       -3.2126707859       -4.4507197413
 H         -1.8134199507       -3.8529814681       -3.7600948669
 H         -1.1761388928       -2.8132164353       -4.6807725082
 O          0.6328942422        1.2467697094       -3.0538503362
 H          1.2698726798        1.9793916189       -3.1344761971
 H          0.3483100181        1.0456725387       -3.9474512099
 O         -0.4240998281        6.0218053157        1.2188478557
 H         -0.2172076563        6.6761752002        1.8873291383
 H         -1.0719600778        5.4074481205        1.6647857705
 O          1.5167791633       -6.4405978507       -2.6743913549
 H          2.2167748839       -5.8011857405       -2.9480521276
 H          1.7317939983       -7.2790712167       -3.0825972563
 O          3.1154440616       -3.4216999110        0.4498758807
 H          3.8510937033       -3.1627520942       -0.1420959367
 H          2.3192002101       -3.2143557916       -0.0716100303
 O          4.8085460044       -0.1963815956       -2.6020277292
 H          4.3708615346       -0.0152960103       -3.4471135998
 H          4.6329803022        0.5977436293       -2.0750792707
 O          0.6535342545        0.4437249697       -5.9336039262
 H          0.8793142882        0.1537569567       -6.8181680156
 H         -0.0226369490        1.1766193654       -6.0701889082
 O          0.0703409882        4.8912943321       -2.5297444097
 H         -0.5076414740        4.3239985849       -3.0694639940
 H         -0.5394974337        5.4140622179       -1.9849954948
 O         -5.1361008760       -1.4738494993       -2.3780715966
 H         -4.3734490458       -1.8916374592       -1.9111618773
 H         -5.9110647901       -2.0054050128       -2.2002855733
