  309
       -524.48573533
 O          1.2596038932       -2.7559136744       -6.7660374899
 H          0.5958580500       -2.0602213575       -6.6206619969
 H          2.1145489628       -2.3048463939       -6.8225880750
 O          6.2342569774       -0.8393491788        1.7783444794
 H          6.0672969249       -0.8960602407        0.8255412221
 H          6.8721729166       -0.1307855637        1.9457948021
 O          0.3731943813       -4.5386794750       -1.9443450160
 H         -0.4251016577       -3.9725148321       -1.9756334700
 H          0.8258733016       -4.3405925279       -2.7815831647
 O          3.6173335045       -5.1982491376       -4.0989212830
 H          2.7480109333       -4.7645256858       -4.2022517633
 H          3.6746136856       -5.4626895075       -3.1688820891
 O         -0.1508006551       -2.8536273726        0.8459067990
 H         -0.0715929785       -3.7916625461        1.1215085922
 H          0.6831851969       -2.4447596617        1.1005887514
 O          1.9627185577        1.4505257076        3.2200195210
 H          1.8928725564        0.4801375334        3.1262973121
 H          1.9869918887        1.6532362278        4.1830748248
 O          3.7046953401       -5.0618824646       -1.2647359430
 H          3.0241665829       -5.6366103788       -0.8593792635
 H          3.2505845249       -4.2319468090       -1.5427359704
 O         -2.4677344490        0.5067886876       -2.5979711167
 H         -3.1759647363        0.9770034916       -3.0903299358
 H         -1.6034438061        0.8184227101       -2.9472635202
 O         -4.6888195496       -2.1575724806       -2.5890675174
 H         -3.9218684555       -2.2186445444       -3.1727352180
 H         -4.7672516637       -3.0118854371       -2.1199743747
 O          6.2118561018        3.8830484279       -0.0361637571
 H          5.7812259278        4.5555398060        0.5053502035
 H          5.7800212590        3.0392260554        0.1871317298
 O         -0.2225593057       -2.5043057559        4.8457961007
 H         -1.0077622594       -2.0867252599        5.2502899548
 H         -0.4951820835       -3.3856119440        4.5760035199
 O         -1.9060024183       -1.8289928503        2.5819279037
 H         -2.7666984288       -1.7638745946        2.1454510336
 H         -1.2593736793       -2.0820526526        1.8830444760
 O         -7.7144988887       -3.0648319646        2.4721750064
 H         -8.3122659311       -3.8105766948        2.5004943805
 H         -7.3630696384       -3.0060818294        1.5513130700
 O          2.0732039907       -1.2084516214        5.8815275442
 H          2.6851446731       -1.0473418603        5.1358701960
 H          1.5238860276       -1.9532949205        5.6101641058
 O         -1.9611809637       -4.4023306277        3.3802065365
 H         -1.9263042036       -3.4538292154        3.1236692936
 H         -2.5806661035       -4.4080615036        4.1400230382
 O         -4.6420602256        5.1934599689       -2.5869338275
 H         -4.5844077783        5.1352599953       -1.6210113717
 H         -5.2836108945        4.5174439570       -2.8437376616
 O         -2.0530870354        2.4791651151       -5.1653195651
 H         -2.0806371518        3.2901257264       -4.6116599704
 H         -2.9279575324        2.0827106331       -5.0431107109
 O          3.0181333274       -2.5779608263       -1.9013448586
 H          3.5878796849       -2.1373780429       -1.2514430406
 H          2.1194251193       -2.1636669284       -1.8175496477
 O         -1.1739838112        0.4336677672        3.9875153631
 H         -1.5081248375       -0.3534387316        3.5223405177
 H         -0.9138064020        1.0949745700        3.3119352898
 O          1.9370780704        2.1622117117        5.7646971512
 H          2.7718424969        1.7938049358        6.1459718525
 H          1.2031974533        1.6385033299        6.1510106166
 O          3.4194206158       -0.7832396708        1.3305713539
 H          3.7406698167       -1.6694227543        1.0958996217
 H          4.0779662118       -0.1617596361        0.9869660730
 O          7.9476118998        1.1616031874        2.5463184329
 H          8.7932504624        0.9258966851        2.9265416050
 H          8.1499080179        1.6951714972        1.7339476462
 O         -7.7989748819       -0.3353804748        2.7165564532
 H         -7.9606714848       -1.2888478593        2.7643206217
 H         -8.3592666200        0.0092444601        1.9762359803
 O          5.0014694687        1.3657015197        0.2450963265
 H          4.2781385672        1.7270594841       -0.3079335995
 H          5.7086801534        1.0615572734       -0.3570994669
 O          4.1405307850        0.9822598153        6.5873123404
 H          4.8015846371        1.0780946724        5.8821313145
 H          3.8589705214        0.0616057980        6.5826787549
 O          1.8313058169        5.7162760097        2.5500120530
 H          1.7633115447        5.4081533964        3.4648537234
 H          1.6491907910        4.9386553903        1.9813847257
 O         -2.7971120596        1.0788052872        1.8023395801
 H         -2.7351670868        1.9631748627        2.2239896880
 H         -3.3356995231        0.5448063908        2.4127351916
 O         -0.3364475339        2.4526918934        2.4488544400
 H         -0.5581925552        3.1921024957        3.0605027312
 H          0.5638242283        2.1414414569        2.7084233438
 O         -1.9471457636        4.7906909128        1.0436889613
 H         -2.0739992243        4.3973507386        1.9199316671
 H         -2.8514336409        4.9087335290        0.6988528776
 O         -1.4533273860        3.2552561968       -1.1366287615
 H         -1.4827564593        3.8464799795       -0.3603069790
 H         -0.5267651259        3.1901721765       -1.4409815386
 O         -8.2263254550       -1.2588588919       -1.4273808931
 H         -8.2652965099       -1.8587635518       -2.1957981766
 H         -7.5368099885       -1.6422816133       -0.8536418603
 O          4.0099964998       -3.4556836253        0.9633795987
 H          4.0068688990       -4.1184532699        0.2548556927
 H          4.8942917028       -3.5083989885        1.4031655791
 O          4.2301126811        2.6288631355        2.4943267513
 H          4.5720938684        2.0977710944        1.7553505521
 H          3.3512564930        2.2438613670        2.7018260090
 O         -5.6707205367        2.5430928650        2.1372263984
 H         -6.1791571101        2.4618251071        2.9533065982
 H         -5.3959056825        1.6028026851        1.9451558941
 O          4.6747817563       -3.3651525159        4.4334118799
 H          3.8417781152       -3.7620432766        4.1452341225
 H          4.5148798876       -2.4027606075        4.3632641877
 O         -8.0500115492        0.8135467927       -3.0843306923
 H         -8.0769053676        0.1639884337       -2.3433028314
 H         -8.9229345714        0.8086532715       -3.4760743660
 O         -4.9916247022       -4.5337248599       -1.2350150730
 H         -4.4866845353       -4.7123704988       -0.4291881565
 H         -4.5051957250       -5.0491203683       -1.9226165268
 O          2.2715946474       -3.6084652788        2.9555871301
 H          1.9696550444       -2.6853479351        3.0111026016
 H          2.9147054850       -3.6168097858        2.2109713404
 O          5.6881124342        1.2522464357        4.2791716532
 H          6.5379054097        1.1600396194        3.8277614333
 H          5.1834564582        1.8889683205        3.7298466379
 O          3.6381461480        2.7113607044       -3.8859806591
 H          4.1747801692        2.1494805486       -4.4632803324
 H          4.2720474981        3.3368893435       -3.4700146965
 O          3.0891482020        2.7616617347       -0.9269609767
 H          3.4348172215        3.6750408663       -1.0866547117
 H          2.4923606923        2.8931549785       -0.1650501187
 O         -3.7167977423        1.9611810551       -0.5189541705
 H         -2.8972678119        2.2663626448       -0.9457331559
 H         -3.4323167087        1.5792233026        0.3414116835
 O         -6.9612036610        2.0774320011       -0.2679832691
 H         -6.5304291151        2.3698319720        0.5527269273
 H         -6.4930935552        1.2742586188       -0.5559010115
 O         -9.0442405834        0.5263423056        0.5589894287
 H         -8.4510952193        1.2327328833        0.2370853221
 H         -8.9943463608       -0.1695596329       -0.1111891340
 O         -0.0091188769        0.4241209650        6.3910005639
 H         -0.3409147094        0.3966404970        5.4705680610
 H          0.7194309019       -0.2298956925        6.3984206471
 O          7.0513272129        0.8055485853       -1.4025279690
 H          7.5010053694       -0.0481839017       -1.2331779520
 H          6.8443322742        0.7899297290       -2.3424276627
 O          1.0757751726       -1.1040222420        2.8950338622
 H          0.4954037555       -1.4394273478        3.6029715278
 H          0.5066227111       -0.7322445247        2.2001602635
 O          6.2795358600       -3.4181456270        2.2936362227
 H          6.3542293132       -2.4395310050        2.2188110778
 H          5.8661681384       -3.5617355778        3.1724402988
 O          6.0734362816       -3.8454467153       -1.8234283288
 H          5.3695434218       -4.4539384792       -1.5491824827
 H          5.8537370412       -3.6114657861       -2.7391768336
 O          0.3526380662        5.2822971023       -3.7688271579
 H         -0.6121757408        5.1347765837       -3.7920059289
 H          0.7240371897        4.8552884941       -4.5569188729
 O         -1.9129508634       -3.2859003265       -2.2600348048
 H         -1.9112768846       -2.7732864233       -3.0962817616
 H         -2.1223966900       -2.6393301845       -1.5552137084
 O         -1.4025997883       -6.2983953003       -0.7443671756
 H         -0.8292622824       -6.9092515117       -0.2752877447
 H         -0.8023600375       -5.7199642359       -1.2510076120
 O         -0.1685136384        1.0686555623       -3.7647686619
 H          0.2956565203        1.7902700190       -3.2836556597
 H         -0.6660014640        1.5114141678       -4.4774966727
 O         -7.7887922412       -2.7335499265       -3.6839382748
 H         -7.2765798483       -2.0866665878       -4.2007984108
 H         -7.2405124427       -3.5166264468       -3.6113366481
 O         -3.0895081052       -4.8898588791        0.9014430989
 H         -2.7045552136       -4.9170343148        1.7975890998
 H         -2.4575295964       -5.3514287601        0.3169387384
 O          1.8752831704       -0.7490751177       -4.0744848819
 H          2.5346415871       -0.4285774733       -3.4323071149
 H          1.1411766902       -0.1117531926       -4.0800811558
 O         -4.3967235326        1.5077319538       -4.0898050010
 H         -4.9971294593        2.1111704839       -3.6079152759
 H         -4.9467357033        0.7593660568       -4.3890568657
 O          1.4477160400       -3.5432365536       -4.2323985178
 H          1.6196400592       -2.6249775624       -3.9649024492
 H          1.2789732955       -3.4753178551       -5.1970224995
 O         -2.4432499619       -1.2455767825       -0.6277248160
 H         -1.6957560905       -0.9559289350       -0.0655007507
 H         -2.5602689219       -0.5534548528       -1.3080648358
 O          1.5539852840       -6.2217015874       -0.1867132761
 H          1.2474772292       -5.9734943922        0.6964062179
 H          1.1202685501       -5.6007127275       -0.7996218047
 O          1.7402354312        3.6085333780       -5.4973035598
 H          2.3945195716        3.2627024802       -4.8378551847
 H          2.2575012568        4.0272271009       -6.1852870239
 O         -6.2842321437        2.9298855654       -2.7643522135
 H         -6.4030173671        2.8370814188       -1.8008406990
 H         -7.0105849257        2.4029590827       -3.1234936493
 O         -6.5106466505        1.2945773475        4.4524995506
 H         -6.9630537824        1.3409934540        5.2937818206
 H         -7.0204517678        0.6724929013        3.8936083483
 O         -5.2061674880       -2.3803702446        3.4783100193
 H         -4.8204602147       -2.3914570118        2.5852116771
 H         -6.1334369027       -2.6274220901        3.3617669722
 O          3.5244855437        5.3651603911       -0.9982111105
 H          3.8166049447        5.4411320698       -0.0678685975
 H          2.5874976341        5.6353257254       -1.0212263198
 O          4.0065920421        0.2601182947       -2.6162112589
 H          3.7368046143        1.1685334211       -2.4276993022
 H          4.5017211232        0.3204164261       -3.4596358783
 O          1.6833185707        4.7340576619        5.1769711620
 H          2.1865417573        5.2424068857        5.8119554259
 H          1.8358069423        3.7848260958        5.3906922993
 O          3.6042881507       -1.2988564328       -6.0081753842
 H          4.0857265618       -1.9674667172       -5.4879799364
 H          2.8694064416       -1.0277398367       -5.4150624451
 O          5.2847940187       -1.4127621834       -0.7791805914
 H          5.7146250821       -2.2069840416       -1.1405358417
 H          5.0537798050       -0.8222894612       -1.5126794839
 O         -2.2036029075        4.4808108159       -3.4102254637
 H         -3.0921484551        4.8650815875       -3.2519831243
 H         -1.9823379121        4.0273686576       -2.5685242094
 O          5.3863920429        4.3203128809       -2.6592733194
 H          5.8889627580        4.0549719550       -1.8707950154
 H          4.7886466920        5.0053181961       -2.3269603503
 O         -2.3718539748       -1.2461926786        5.9889332450
 H         -2.8838659920       -0.7172913273        5.3460083627
 H         -1.7905138450       -0.6355383885        6.4595108850
 O          6.7829064004       -1.0032405479       -3.6083495901
 H          7.4016610079       -1.3799557739       -2.9681747303
 H          6.1283880020       -1.6927270333       -3.7990987625
 O          7.9965088210       -3.6539522891        0.1420334128
 H          7.3925117514       -4.0127760850       -0.5232530428
 H          7.5004082892       -3.6499249845        0.9772814621
 O         -6.1122344628       -0.6057916564       -4.3646898526
 H         -6.7809962583       -0.0581692484       -3.9103419224
 H         -5.6342466434       -1.1040353546       -3.6795915057
 O         -5.3804413544       -0.0361601908       -1.0410663674
 H         -5.1032324471       -0.7998670845       -1.5746804477
 H         -4.6697274756        0.6329418901       -1.0998995818
 O         -2.3266640767       -1.6237115565       -4.2465129762
 H         -2.3810963374       -0.8067370829       -3.7091989877
 H         -1.7235322522       -1.4202843804       -4.9796376117
 O          0.0685947924        1.7296563990       -6.6953649837
 H         -0.7745044252        2.1352224256       -6.4426555262
 H          0.7492403662        2.2891427762       -6.2850964821
 O          8.4083015810       -1.4971489009       -1.2936199956
 H          8.2372633681       -2.2712623674       -0.6936917230
 H          9.3591021437       -1.3995691981       -1.3300828024
 O          4.3154352483        5.1924781899        1.5921960245
 H          4.2877060828        4.2925824672        1.9776047769
 H          3.5573619918        5.6493477592        1.9975453162
 O          3.9280681963       -0.7975514373        3.9500034294
 H          4.6471186100       -0.1460011535        4.0440836616
 H          3.7033322226       -0.8053416259        2.9911006916
 O          1.2503775373        3.7689107714        0.7605738025
 H          0.9688320426        4.4056736260        0.0776427986
 H          0.4562955566        3.4102871398        1.1997629573
 O         -0.1944175395        6.9345765223        1.0359539031
 H          0.4934854460        6.7155832436        1.6859248810
 H         -0.8986593095        6.2749757378        1.1592016966
 O         -0.6866317863       -0.8101080393       -6.3451662392
 H         -1.2253529119       -0.9078296993       -7.1312908273
 H         -0.2963527658        0.0930239410       -6.4029688628
 O         -4.4966077532        4.4289275830        0.1120629716
 H         -5.1477380031        4.3500485460        0.8112646047
 H         -4.2761233001        3.5026759782       -0.1515933523
 O         -2.3115451451        2.3424737020        5.5302562083
 H         -1.9237578739        2.1408582656        6.3832662034
 H         -2.0658295635        1.5897432260        4.9505378040
 O         -4.0765124461       -2.4338500537        0.9866948286
 H         -3.5833200646       -1.9017710686        0.3199099651
 H         -3.7067357838       -3.3415736951        0.9194866683
 O         -5.3466100819       -0.0095635810        1.6402233447
 H         -5.3774097263       -0.1483091626        0.6748951480
 H         -6.2207656269       -0.2488576648        1.9998483878
 O         -3.2107219068       -5.6322901052       -2.8119248188
 H         -2.6884432519       -4.8102434681       -2.7570801608
 H         -2.7355660399       -6.2565942359       -2.2511218355
 O         -6.5495949432       -2.7483731263        0.1028301200
 H         -6.3490744882       -3.5083142384       -0.4618759900
 H         -5.6637584104       -2.4653001492        0.4307817732
 O          0.3285241703       -5.1648053932        2.0621827014
 H          1.0664701689       -4.6971779244        2.5221613307
 H         -0.4249827826       -5.1631438425        2.6689230393
 O          0.8425223055        5.7119466508       -1.0380970968
 H          0.4282799148        6.3515374387       -0.4090576778
 H          0.5380549185        5.8932083230       -1.9341710121
 O          8.4844355471        2.4462691366        0.3044956942
 H          8.1471330284        1.8556111802       -0.3884522146
 H          7.8901155499        3.2138445314        0.2599731519
 O         -4.0134864480        0.0027528892        4.1173307346
 H         -4.4505627287       -0.8359055371        3.8838376163
 H         -4.7391993153        0.6003597934        4.3456755714
 O          0.8828712902        3.0373026712       -2.3906181514
 H          0.8487303493        3.8979640146       -2.8576331152
 H          1.7821804343        2.9301968470       -2.0272869229
 O         -3.6335614192       -3.7009847547        5.3223090318
 H         -3.2091952893       -2.9660069608        5.7839907683
 H         -4.2925953116       -3.2878764572        4.7387634426
 O          4.7063746467       -2.8204580215       -3.9942440072
 H          4.0479475758       -2.5641133340       -3.3098015045
 H          4.4329615458       -3.7418621180       -4.2253732955
 O          5.1414463153        0.6688081013       -5.0479700483
 H          4.6235225219        0.0252227253       -5.5845275755
 H          5.9872629157        0.2433322377       -4.8633996121
 O         -0.8589684792        4.3338686454        4.2182846226
 H         -1.3464014651        3.7914893353        4.8575050111
 H         -0.0295145086        4.6068072865        4.6366937249
 O         -3.2638091289        3.3723119646        3.0300793561
 H         -3.1922828425        3.2130375146        3.9759170045
 H         -4.1929424360        3.2241765238        2.7686093939
 O         -0.5166161330       -0.0015724808        0.8470578165
 H          0.0557295803        0.5183150104        0.2809237038
 H         -1.2060582934        0.5924036829        1.2093185099
 O          0.5561004298       -1.5958159548       -1.4804594825
 H          0.1880827913       -2.1021839316       -0.7371418894
 H         -0.0405143481       -1.6849992787       -2.2243047287
 O          9.5138340970       -1.4641145548        1.3886960578
 H          8.6169529296       -1.1595817554        1.5530104918
 H          9.4460899857       -2.4048601667        1.2047446632
