  84
       -142.48512627
 O          5.0602391785       -1.0437948880        1.0964412052
 H          5.9424148946       -1.3291664021        1.3420924405
 H          5.1148100468       -0.0819581013        0.9167770936
 O          3.6084474679        2.0321326859       -1.5401411733
 H          3.4928861285        1.2323054121       -2.0777032726
 H          2.7333062180        2.2514864769       -1.1799883826
 O          3.1961813896       -0.3414356444       -2.8747794756
 H          3.6182115373       -0.6118485388       -3.6918066181
 H          3.3926846259       -1.0331425556       -2.2069357594
 O         -2.8425800443        2.0259676164       -3.6469247603
 H         -3.2735972501        2.3987309856       -4.4180605917
 H         -3.5751940147        1.8261635518       -3.0097709452
 O         -1.9208694276       -0.6205062720       -3.7440042634
 H         -0.9671952259       -0.4815938590       -3.6822119663
 H         -2.3068419241        0.2575134100       -3.8823358241
 O          1.5085471317       -3.5389458161       -0.2022454491
 H          2.2388199153       -3.0784484611       -0.6360882555
 H          1.5313275651       -3.2390136781        0.7295002881
 O         -1.2951925139       -2.6138234845        2.3305121377
 H         -0.3084849439       -2.5320683457        2.3824884377
 H         -1.5386175923       -3.3064098169        2.9457725599
 O         -1.0130983925       -2.8572762695       -0.4042317962
 H         -0.1085353799       -3.2512241345       -0.4689783026
 H         -1.2621725450       -2.9343011922        0.5332412984
 O         -3.1178871820       -2.5234017873       -2.1883092045
 H         -2.7181170933       -1.9532851999       -2.8696656722
 H         -2.3903418772       -2.8264197807       -1.6246230114
 O          2.6471156401        0.7373826628        4.1566277395
 H          2.8051439076        1.3853093527        3.4584633711
 H          1.7007999307        0.7603230629        4.3363044590
 O          1.3039117817       -2.2782076556        2.1607028565
 H          2.0953616771       -2.2679530687        2.7556452945
 H          1.2496368754       -1.3550811638        1.8365715925
 O          3.5213841356       -1.7347715315        3.4216125818
 H          4.0871315414       -1.5100465776        2.6706629402
 H          3.2885070571       -0.8852415406        3.8444859059
 O         -4.8295592215        1.3595942455       -2.0435147990
 H         -4.9374916648        0.4185105334       -1.8230603914
 H         -4.9950309108        1.8317539539       -1.2119291890
 O         -0.1886974044        1.1178952349        3.7835748747
 H         -1.0472310728        0.6778052239        3.6739253032
 H         -0.3644459668        2.0567786398        3.8693329110
 O          1.1008983078        2.6473635123       -0.5240347124
 H          0.6371819881        2.9445715043       -1.3171743564
 H          0.4108391693        2.4516620118        0.1283120988
 O         -2.3198622679       -0.0819384952        2.6037613080
 H         -3.2610520875       -0.1468808102        2.3834760363
 H         -1.9658744750       -0.9891097886        2.5230176520
 O         -4.8822711548       -0.4524548610        1.4975290657
 H         -4.9216783730       -0.7886796696        0.5721436927
 H         -5.5742180775       -0.9055753179        1.9821669012
 O         -0.3539016127        2.9511020923       -3.0042120305
 H         -1.2658480766        2.6599864171       -3.2172081613
 H         -0.1470513485        3.6666530415       -3.6074173016
 O          0.5640195943        0.3677562585       -2.9680771149
 H          1.5115165819        0.1497568371       -2.9849750531
 H          0.4640403955        1.3279754283       -3.0833310238
 O          2.8595244148        2.1920608205        1.7161662577
 H          2.4852383590        2.8503207139        1.1217110516
 H          3.7622645957        2.0088464953        1.4000289294
 O         -5.0562746973       -1.2334399598       -1.0641706751
 H         -4.3000779660       -1.7502574168       -1.4721848554
 H         -5.8540419736       -1.6735672568       -1.3621482458
 O         -5.1915115909        2.1567395061        0.5811488610
 H         -5.9514019718        2.6098779361        0.9485183073
 H         -5.1244842046        1.2923687594        1.0236861213
 O          5.2005494312        1.5750669695        0.4640299676
 H          4.6766993537        1.7524915893       -0.3672590724
 H          5.9779877177        2.1336104003        0.4281826854
 O          0.9871119944        0.2833570031        1.4591137976
 H          0.5274449749        0.5518093036        2.2787450817
 H          1.7552610784        0.8876148543        1.4156672296
 O          3.8509149963       -2.1930453250       -1.0288311466
 H          4.2268841583       -1.7864357587       -0.2174111300
 H          4.4172020407       -2.9350548277       -1.2500247969
 O         -1.3029316004        2.1528607098        0.7506863348
 H         -1.1669462158        1.2209065687        0.4457696149
 H         -2.2451383105        2.2891853970        0.6391607121
 O         -1.1890577923       -0.0667914710       -0.6868514279
 H         -0.5788183715        0.0864201387       -1.4188449732
 H         -1.1247217263       -1.0131036345       -0.4878865395
 O         -0.3819896696        3.6626141021        2.8114410400
 H          0.5380881614        3.7534958199        2.5583875366
 H         -0.7925967227        3.1196598694        2.1054284145
