  251
       -422.17481314
 H          2.4596697577        0.2294034883       -0.4693507806
 C          1.9449594440        1.1873402083       -0.5471923252
 H          2.6864703714        1.9916247370       -0.5313053264
 C          0.9812414275        1.3729976688        0.6222229747
 H          0.3716030298        2.2642180821        0.4300543493
 H          1.5639388769        1.5546324173        1.5230106202
 N          0.1752111027        0.1823975478        0.8380696008
 H         -0.4500762764        0.3080031987        1.6273890832
 H         -0.3871997769       -0.0155481456        0.0157987867
 O          1.2921565653        1.1869078861       -1.8083340796
 H          0.5603784624        1.8587880397       -1.7852214336
 O          1.3586500757       -2.0992291435        1.3072663571
 H          2.2399221933       -1.9624556645        1.6791975868
 H          0.9069765997       -1.2058481202        1.2066891014
 O          2.2248899529       -2.6563568373       -1.0577583195
 H          1.9074253534       -2.3442568269       -0.1707578450
 H          2.5705904354       -3.5527626883       -0.8846127215
 O          3.8594009696        1.6069031978        2.0085791411
 H          4.3399930529        1.2066363044        1.2566250281
 H          4.5424676003        1.7704363257        2.6953572912
 O         -0.0640169161       -2.4242467916       -2.3459020433
 H          0.6973441740       -2.7229057529       -1.8076355545
 H         -0.5218889999       -3.1912281268       -2.7433191365
 O         -6.7660138954        2.1444619440       -1.5230437663
 H         -6.4914315784        1.5136355951       -2.1967588967
 H         -7.0474155518        1.6397162155       -0.7425093685
 O          0.1679344194        4.2306723975        2.1338482647
 H         -0.1513229082        4.9796690423        1.5929640012
 H          1.1175843066        4.1522856335        1.9611003131
 O         -0.3934507937        3.1887811965       -1.7669708519
 H         -0.7384830580        3.5543676541       -2.6202628568
 H          0.1796375757        3.8907082664       -1.4017842378
 O          2.5062863882       -4.9861370696        2.2863954306
 H          1.6885959574       -5.4967229693        2.3679294214
 H          2.3407092763       -4.1593102082        2.7801758794
 O          1.0443979938       -5.2565798006       -2.3423801967
 H          0.2194584858       -5.3019483502       -2.8393427507
 H          0.7974352996       -4.9511719848       -1.4449848724
 O         -2.2070624125       -4.5544246456       -0.8497629242
 H         -1.3208508175       -4.3625198604       -0.4680486788
 H         -2.0753014758       -4.7589678681       -1.7789072757
 O         -0.1314853838        0.0657607888        3.7547729672
 H          0.7966959532       -0.1969018340        3.6795222910
 H         -0.1278308227        0.9981272175        4.0355480090
 O          5.2766174235       -3.2533416174       -0.6511560601
 H          4.9482965558       -2.8542541867       -1.4834074914
 H          4.7787796387       -4.0756850977       -0.5303983401
 O          2.1959823552       -2.8322689838        3.9983103164
 H          2.9040015495       -3.0582556573        4.6407450710
 H          2.3117428995       -1.8869575231        3.8274463575
 O          2.5775811267       -3.8889744998       -4.0849418605
 H          2.9279987612       -4.6010443569       -4.6197951926
 H          2.0624065106       -4.3254889830       -3.3660405525
 O         -1.4695631797       -0.3789201103       -1.4928380096
 H         -0.9002961606       -1.1425097463       -1.7253690537
 H         -1.5805555475        0.1027475792       -2.3415310582
 O          0.0848077570        2.1211370782       -5.3001109893
 H          0.9335101291        2.3368074074       -4.8777940772
 H          0.2374124103        1.3049005391       -5.8108770060
 O         -3.7718308440       -0.6121352966       -4.8134743038
 H         -2.9640173985       -0.1418058979       -4.5297684485
 H         -3.7183886512       -1.5101762563       -4.4300642794
 O         -0.9377977482        5.9951601119        0.3932813312
 H         -1.5726908128        6.4456437828        0.9656990227
 H         -1.5103755016        5.5786303373       -0.2907227240
 O         -4.8753553185        3.5978781402       -0.3369981000
 H         -5.5922977861        3.2517744089       -0.9051183293
 H         -5.3229701035        3.9968718687        0.4432377485
 O          4.0975335614       -1.8785768219        1.3972805833
 H          4.4076243777       -0.9765141385        1.2849421026
 H          4.4419358655       -2.3698798705        0.6232337620
 O         -2.4296668806        2.0254928343       -0.5201510801
 H         -1.7067651587        2.5165097431       -0.9602098350
 H         -2.2115787928        1.0893050955       -0.6155786756
 O          4.4770572000       -3.1579267180        5.3524195930
 H          4.8544633155       -3.6264836051        4.5848763208
 H          4.8678457332       -2.2753296037        5.3187136104
 O          1.5588781335        5.1136493637       -3.6262394739
 H          1.5566718313        5.1987388689       -2.6626339299
 H          1.9657188609        4.2584776887       -3.8226048126
 O          5.3129675905        0.4434453594        0.1380899233
 H          5.9859174378       -0.2697639726        0.2057201237
 H          5.7971062434        1.2077327742       -0.2087825092
 O         -0.1622421166       -5.8088048105        2.2742913995
 H         -0.3618224983       -5.0420075300        2.8425782630
 H         -1.0476160583       -6.1488619026        2.0002032392
 O          8.0554024754       -0.0099297112       -1.7430606339
 H          8.9040945818       -0.3190591984       -2.0584563592
 H          7.8081188545       -0.5886126643       -0.9862041653
 O         -7.5733346682        1.0969808007        0.9253445390
 H         -7.1616535864        0.5177233142        1.5998316985
 H         -7.7268412462        1.9375910394        1.3606054470
 O         -2.5876176762       -0.0423703207        2.1015641677
 H         -3.1871547450       -0.6472541731        2.5895567498
 H         -3.1926733032        0.5019961808        1.5591738373
 O          5.0925128687       -4.0139619962        2.8328237259
 H          4.4529302767       -4.7200657286        2.6860636102
 H          4.6857572984       -3.2243207504        2.4293068207
 O          4.1741526476        4.1898745686        4.1231844242
 H          4.1031466306        4.9225789221        4.7347423672
 H          4.5501811883        4.5600353687        3.2941415331
 O         -6.2651256846       -3.6303428284       -2.7603133236
 H         -6.5963723585       -2.7036201489       -2.6542398650
 H         -7.0241054485       -4.1682159609       -2.9823433449
 O          1.5398040882       -0.8020879341       -3.6352907716
 H          1.4346497144       -0.1031979009       -2.9688309027
 H          0.9487746941       -1.5152331883       -3.3075838061
 O          0.7996164841       -0.3832264708       -6.1353930787
 H          1.0273809543       -0.5177349763       -5.1835172088
 H          1.6388957697       -0.3117049755       -6.5935232717
 O         -5.5598803249       -0.8945639708       -0.1840671605
 H         -6.1128955736       -1.4423576710        0.4139838215
 H         -4.7739403946       -1.4352058341       -0.4196268956
 O         -2.7424187451        4.9995591319       -1.3305960668
 H         -2.6115670062        4.7845774295       -2.2582952731
 H         -3.4895294882        4.4481229773       -1.0268764421
 O         -0.2001069185        2.7206947417        4.4332936580
 H         -0.0755844800        3.3268362990        3.6856375634
 H         -1.1671540648        2.5716825160        4.4928077845
 O         -5.5769661135       -4.0173261879       -0.0402294550
 H         -5.7013050041       -3.9370879310       -0.9972304056
 H         -6.3436373112       -3.6098173524        0.3838897622
 O         -9.0278126505       -0.8804204410       -0.3841906080
 H         -8.7203250619       -0.0528286005        0.0181405272
 H         -8.5435511165       -0.9622523212       -1.2199839618
 O          4.0977529657       -2.0079689725       -2.7296307239
 H          3.7637771097       -2.5719439092       -3.4434956413
 H          3.3297610969       -1.9818337129       -2.1117258715
 O          5.2840233552       -0.6687963803        4.2587190045
 H          5.6022674831        0.2413081637        4.3182330376
 H          4.3400904891       -0.5978877603        4.0213154181
 O         -5.7042970961        0.7607073042       -3.8111014253
 H         -4.9536538954        0.2042481616       -4.1973096097
 H         -6.1297267278        1.1756005786       -4.5616216152
 O          4.7149841518        2.7447545584       -2.2939141589
 H          4.9672909823        1.8095193758       -2.4391714904
 H          3.9788248311        2.8833590438       -2.9150154658
 O         -3.7007217887       -2.9964529999       -3.5258317525
 H         -4.5764423871       -3.4072198369       -3.4952209836
 H         -3.5893718115       -2.6323994990       -2.6101059793
 O         -1.0270123923        4.3576252208       -4.0224951068
 H         -0.1830755298        4.8518264290       -4.0294733989
 H         -0.9400661890        3.6944048834       -4.7184538091
 O         -3.7077280051        2.5553253466       -2.8961594243
 H         -4.5102203510        2.0599476150       -3.1091365662
 H         -3.5437932851        2.4363746035       -1.9438196156
 O          7.1327485045       -1.5060720497        0.2562943450
 H          7.2460304566       -1.6861024656        1.2268130747
 H          6.6278890606       -2.2640420610       -0.0847339704
 O         -1.5349112794       -2.4093093199        1.1605306664
 H         -1.8080652619       -1.5057460668        1.3897861432
 H         -1.0190472771       -2.7216497631        1.9250386836
 O         -5.9233307970        4.4963195439        1.9554767882
 H         -5.2365039645        5.1494655170        2.1514566295
 H         -5.8020720380        3.7606317030        2.5853351908
 O         -1.3686253465       -4.3474606411       -3.6666518760
 H         -0.8972653026       -4.0538528182       -4.4714682918
 H         -2.2560621576       -3.9336193837       -3.7323110601
 O         -3.5181020100        5.9169780737        1.5173860438
 H         -3.1717334127        5.0058598001        1.6261130661
 H         -3.7860619182        5.9780524765        0.5962243712
 O         -7.3976269192       -2.2939935524        1.1851468242
 H         -7.3868032765       -1.8382347191        2.0340632172
 H         -8.1369945753       -1.9029000331        0.6648076823
 O          5.8099570928        2.0328893470        3.7962278695
 H          5.3640508348        2.8116823382        4.1699265020
 H          6.4979928178        2.3558653594        3.1943977719
 O         -1.8692732370       -1.5520826104        4.9606567005
 H         -1.2992496205       -0.9160166817        4.4657390835
 H         -1.7986068612       -1.3131469276        5.8841365489
 O          2.6530767972       -0.1053339462        3.6550237669
 H          2.9509344394        0.3942782596        2.8683643654
 H          2.5798803082        0.5977703640        4.3445651417
 O          7.1222119102       -2.0868404345        2.8066034785
 H          6.5142945420       -1.5304988545        3.3315888983
 H          6.7378939099       -2.9720601262        2.8452308463
 O         -1.8112158275        0.9424410230       -3.7584601859
 H         -2.4663495935        1.6416664277       -3.5183019667
 H         -1.1299637551        1.3744740870       -4.3043401731
 O          7.4924967634        3.0218505379        1.8091163380
 H          7.3302306091        2.7762923054        0.8774402634
 H          8.4423608513        3.0646526642        1.9202563646
 O         -0.4402009847       -3.3908187067        3.4752491628
 H         -1.0106093783       -2.9090999484        4.0930428954
 H          0.4766050194       -3.1460096196        3.6878426550
 O          0.2768757479       -4.3860394967        0.1034953547
 H          0.1587923581       -5.0092507356        0.8602980210
 H          0.4469600736       -3.5265264502        0.5242835470
 O         -3.7069484274       -3.7834510242        1.8946141725
 H         -4.3512246206       -3.8920867383        1.1702795428
 H         -2.9140374514       -3.3488677398        1.5005141872
 O         -2.6125729021       -6.2283102664        1.3568728941
 H         -3.1065980146       -5.5255110456        1.8162658936
 H         -2.5731742678       -5.9050295754        0.4437526318
 O          1.3272487848        5.0401281558       -0.8218462565
 H          1.7963294755        4.6185985327       -0.0795961607
 H          0.6733634271        5.6399416924       -0.4332437374
 O         -2.7407541608        1.9796914601        3.9499642442
 H         -2.7452975668        2.6162885428        3.2032266152
 H         -2.5652075523        1.1275682534        3.5030622089
 O          2.4870605604        2.4569907826       -3.8814697914
 H          2.9297987614        1.7521518333       -4.4133662537
 H          2.0917902713        1.9925129921       -3.1129950178
 O         -7.0331197293       -1.1252844821       -2.3473793379
 H         -6.4737736101       -0.9975815032       -1.5376473131
 H         -6.6568242609       -0.5144268813       -3.0025463695
 O         -4.1976889415       -1.7081772016        3.4286536345
 H         -4.1165068850       -2.5495780268        2.9115931869
 H         -3.5674800090       -1.7850848666        4.1590452822
 O         -3.4081146207       -2.1506543569       -1.0499007099
 H         -3.0146371234       -2.9930956643       -0.7421967576
 H         -2.6889999621       -1.4859252489       -1.0702340411
 O         -4.5911790359        1.2854162606        0.9946992198
 H         -4.5892741870        2.0760859211        0.4171151345
 H         -5.0442906643        0.5582594799        0.5215527781
 O          7.0830885148        2.3743394722       -0.7954743536
 H          7.5582273973        1.6457515091       -1.2315895023
 H          6.5047089149        2.7771475007       -1.4547974931
 O         -5.4385547593        2.1653762270        3.3452175330
 H         -5.1499741891        1.8374384834        2.4587902971
 H         -4.6239674782        2.1576695811        3.8722110930
 O          5.5357829563        0.2562137084       -2.9599144317
 H          6.4382527786        0.0936109414       -2.6537033877
 H          5.0254030039       -0.5533956704       -2.7600226147
 O          5.6200559628        5.0627365964        2.0213517560
 H          5.3580246478        5.1758337345        1.0989721384
 H          6.3503725122        4.4248666656        2.0050984350
 O          2.4208539611        2.1001612643        5.0838605994
 H          2.9582810300        2.8093714950        4.7072771738
 H          1.4967303701        2.3854184672        5.0122241872
 O          2.7723567459        3.9773433698        1.2710620647
 H          3.1121302519        3.1238709411        1.6060974783
 H          3.5196661713        4.3778990677        0.7982119370
 O          3.2421291967       -5.0378000053       -0.2735281714
 H          2.7386104869       -5.7335056533       -0.6996268839
 H          2.9600812847       -5.0165498536        0.6729831824
 O          3.6290469768        0.3304625583       -4.9864902290
 H          3.0638222606       -0.2972480292       -4.5030454792
 H          4.4778200162        0.3221861832       -4.5235912720
 O          4.5702814011        4.8550073365       -0.5959426382
 H          4.6421260965        4.0626439189       -1.1637050206
 H          4.1056877272        5.5135976060       -1.1157819807
 O         -6.5488105162       -0.3252451578        3.0392383878
 H         -6.3223976388        0.5345316809        3.4328816768
 H         -5.7506551081       -0.8683465395        3.1658332941
 O          0.2546076079       -3.1967487128       -5.5147560283
 H          0.1903942794       -2.2934871713       -5.8505757514
 H          1.1143534954       -3.2691762179       -5.0689546700
 O         -2.4503044934        3.4392849366        1.7443437758
 H         -1.4996975076        3.5996790518        1.8293427011
 H         -2.5731932657        2.8983840994        0.9347540379
