  86
       -142.08529221
 H          0.3985740632       -0.1240129488        2.6373599163
 C         -0.3879476845        0.5209892007        2.2388816651
 H         -0.9644446863        0.9349436968        3.0702717230
 C         -1.3191415237       -0.2939473827        1.3406580062
 H         -2.0870488027        0.3728729877        0.9293490237
 H         -1.8121621689       -1.0434924966        1.9603372545
 N         -0.5570332590       -0.9765928512        0.2971754993
 H         -1.1414614062       -1.6713719837       -0.1608565292
 H         -0.2569004579       -0.3095005426       -0.4111349028
 O          0.2723402036        1.5522676173        1.5313842308
 H         -0.4091877282        2.2099365634        1.1990733890
 O          5.5259612289       -0.2279251585        1.0357877960
 H          4.7621116836       -0.5119509191        1.5619449221
 H          5.4168346795        0.7392679477        0.9064696097
 O          3.8579779798        1.1997164429       -2.0219788938
 H          4.4532792871        0.4304907587       -1.9691902144
 H          3.2318601463        1.0801545120       -1.2797317448
 O         -3.4219221379        2.9599412783        2.3731452381
 H         -4.0684105706        2.5545442338        1.7751288344
 H         -3.2099585810        2.2693449676        3.0275856701
 O         -4.0447633443       -2.3589502011        0.3888734933
 H         -4.7577694784       -2.9730975229        0.2094018429
 H         -3.2263381732       -2.7874771732        0.0522533355
 O         -0.0698346338       -4.7071431288        0.9578225680
 H         -0.3752113041       -4.9417954226        1.8343807000
 H          0.5553046397       -3.9564358681        1.0729135918
 O         -1.8682087397       -3.4700068912       -0.6424846544
 H         -1.5180509327       -3.4194385490       -1.5469683438
 H         -1.2376354639       -4.0091957705       -0.1250936016
 O          4.8967989810        2.3238951313        0.4173393210
 H          4.0852543908        2.6350231383        0.8447159838
 H          4.6942369522        2.2565728923       -0.5260389888
 O          0.9621020484        3.3426429577       -0.8751647995
 H          0.1687186057        3.6729168780       -0.4337660148
 H          1.6499870987        3.3113043032       -0.1944420138
 O          3.1300406589       -0.8325097659        2.3346176928
 H          3.1572359131       -0.9562980132        3.2826629314
 H          2.5225352535       -1.5265727133        1.9677677467
 O          1.5311442959       -2.1140702582       -3.5800830124
 H          1.9719915982       -2.1588056957       -2.7071052836
 H          1.6098633411       -1.1871105053       -3.8481716987
 O          1.4405893312       -2.4892836703        1.1424255456
 H          0.6712963124       -1.8773634893        0.8975741745
 H          1.9494491338       -2.5494452978        0.3122771932
 O          1.9974027857        0.6441868208       -3.8298313913
 H          1.9980324874        1.2926147443       -4.5337455810
 H          2.7532355215        0.8768610101       -3.2319647350
 O         -3.0997918360        0.7981863348        4.0544505988
 H         -3.6676451005        0.2174128635        3.4981670720
 H         -3.5681313803        0.9049711267        4.8832542942
 O          5.2858928197       -1.0688242973       -1.4154880058
 H          5.4282082831       -0.7920088078       -0.4636588574
 H          6.1233198859       -1.4103864531       -1.7262629127
 O          0.0784907529        1.0178275372       -1.9141798504
 H          0.4176761405        1.8531047218       -1.5220979875
 H          0.7044098730        0.8232243103       -2.6341602248
 O          2.2928763129        0.5008380386        0.0510800718
 H          1.4406761127        0.8577927341        0.3603143375
 H          2.7619561325        0.2456936448        0.8578525756
 O         -2.0253414106       -0.5778597374       -2.9144049314
 H         -1.2640809711       -0.0657586457       -2.6061745466
 H         -1.7045043441       -1.4871110254       -3.0374945617
 O         -1.4054743203        3.3661433693        0.6783216770
 H         -1.8548949017        3.0643550745       -0.1427797546
 H         -2.1145038126        3.3776817102        1.3594794572
 O          2.6997998487       -1.8801271731       -1.1665703938
 H          2.4225339957       -0.9914661973       -0.8617745600
 H          3.6578956574       -1.8030317276       -1.3098360609
 O         -4.7626831179       -0.5531646340        2.4440087418
 H         -5.0382617996        0.1905661044        1.8850658269
 H         -4.4378499526       -1.2297783285        1.8328170420
 O          2.4409972210        3.1649020353        1.5298624145
 H          2.3313145147        3.9183189862        2.1104760163
 H          1.7297199846        2.5313406257        1.7453430186
 O         -3.9601037619       -0.0766843464       -1.1565047340
 H         -3.3415023092       -0.3048280767       -1.8864621048
 H         -4.0107254543       -0.8800654077       -0.6097446011
 O         -2.4371549394        2.3214285367       -1.5508804384
 H         -1.6301996911        1.9323208720       -1.9171002011
 H         -3.0549557147        1.5872748889       -1.4406180391
 O         -0.8767320495       -3.0533138273       -3.1812995109
 H         -1.0559996137       -3.6423232266       -3.9139418715
 H          0.0510697731       -2.7168911059       -3.3198079393
 O         -5.1332858263        1.5484282829        0.6361105523
 H         -4.6987993300        1.0361538811       -0.0753415422
 H         -5.8497503888        2.0312229660        0.2235153583
