  282
       -473.35300812
 H         -2.5544913449       -0.7075811127       -0.0947663426
 C         -1.8452766611        0.1149194694        0.0110574447
 H         -1.7412317921        0.6341080835       -0.9383219177
 C         -0.5037696124       -0.4541519294        0.4487399764
 H         -0.5758631434       -0.7299185141        1.4968456170
 H          0.2755497609        0.2867726419        0.3010480997
 O         -2.3443422318        1.0578411378        0.9371923874
 H         -2.2284611362        0.6813616161        1.8448803124
 N         -0.1905086901       -1.6631666598       -0.3162142587
 H         -0.0886966893       -1.4368424756       -1.3314632435
 H         -0.9602348068       -2.3486954475       -0.1475876395
 H          0.6861554848       -2.0735398117        0.0485143307
 O         -1.0705314193        3.1886421631        1.7554948944
 H         -1.5390716316        2.4607032548        1.2784937921
 H         -1.2257591991        3.9993695231        1.2300495198
 O          3.7265811845       -2.1286754376        3.6835868040
 H          4.1447305542       -2.0454319669        4.5496154840
 H          4.2898267629       -2.7209830529        3.1539464324
 O         -1.4487168372        0.9518066471       -4.0153109794
 H         -0.8615713969        0.2325090601       -3.7093583093
 H         -1.5508000817        0.8560045885       -4.9846145236
 O         -0.7950703176       -5.3666792577        2.2101528759
 H         -0.0836460638       -5.2137786522        2.8407355879
 H         -1.6213416028       -5.0884078413        2.6434734204
 O         -4.7143531585        1.5175958801       -0.4774161704
 H         -4.1894483386        1.1793277630       -1.2305707654
 H         -4.1792163623        2.1972803274       -0.0447149508
 O          0.9223507145       -0.3914316758        3.4512500244
 H         -0.0447232341       -0.3811099326        3.5544781099
 H          1.1523459528       -1.0135447699        2.7244907158
 O          1.6843841793        1.7733946121       -5.3751685636
 H          2.4940609442        1.9745982966       -5.8430800630
 H          1.3633886032        0.8998060596       -5.7011656628
 O         -6.0048213288        1.3690912704        3.1887801474
 H         -6.6806078091        0.7905047997        3.5716135645
 H         -6.4360709709        2.0817092018        2.6808825178
 O          2.7562174488        0.8382420744        0.0169133332
 H          2.1433961184        1.1522223160        0.7142004338
 H          3.4525156463        0.3544894223        0.5002233487
 O         -1.8002417825        0.1617929175        3.3793668643
 H         -2.3506109008        0.7049124817        3.9731907356
 H         -2.2506268021       -0.7078916403        3.3374450891
 O         -2.2647784901        3.2296655238       -1.3463746844
 H         -1.4073580398        2.8019802103       -1.1354512012
 H         -2.6209115017        2.8323731166       -2.1571902937
 O          5.3341108371       -3.6751381939        2.1065225389
 H          6.0627360891       -3.0567787544        2.2800050378
 H          5.0718670182       -3.5271282483        1.1860528492
 O         -4.4702351865       -2.0547147206       -0.8509947051
 H         -4.1625554776       -1.9851124588        0.0576824290
 H         -5.4460679786       -2.0066185087       -0.8406080121
 O          0.4029184918        3.9428741185        4.0215579633
 H          1.2217685101        4.3390738232        3.6978006176
 H         -0.0896585016        3.6840466895        3.2300205132
 O         -7.1016234428        0.5675089320       -1.3820584953
 H         -6.2744488082        0.8533341367       -0.9537244986
 H         -6.8478229306        0.3813370043       -2.3058913101
 O         -1.8411054391        5.5296972491        0.6547995590
 H         -2.7532049837        5.2235139838        0.7338756181
 H         -1.7223525281        5.7453872103       -0.2915445586
 O          1.3989926285        4.5860136468       -2.3632340256
 H          2.2350663325        4.6552006101       -2.8654395279
 H          0.8128996329        4.0487177636       -2.9353207337
 O          1.7160778652        1.4042758849       -2.6895634990
 H          1.6262001206        1.6260465886       -3.6333633782
 H          2.6676516773        1.4997744916       -2.4998845103
 O          0.1662361285        2.3901091560       -0.6906684924
 H          0.5843080214        3.1680717263       -0.2953753815
 H          0.7348591989        2.0791412434       -1.4159734582
 O          2.7223942979        3.9721273113        2.3525730989
 H          2.3956463956        4.4684774782        1.5886062516
 H          2.2163817040        3.1264708665        2.3075444280
 O         -7.1804976060       -2.0658313652       -0.7961451576
 H         -7.3070819021       -2.1754040052        0.1648620266
 H         -7.3401207932       -1.1199799140       -0.9953556076
 O          3.5329254189        0.5580673948        3.5067241633
 H          2.7606831494        0.8562481311        4.0219938603
 H          3.4991187978       -0.4178190803        3.4459269233
 O          0.2309022995       -0.8323159526       -2.8677067734
 H          0.7196342229       -1.6079894591       -3.1991751676
 H          0.8848449100       -0.1229161855       -2.7066623513
 O         -3.5460774826        0.3151310966       -2.5366544955
 H         -2.8627383099        0.6776285003       -3.1400598905
 H         -3.2536665873       -0.5886361199       -2.3093848309
 O          2.5561494506       -1.4263131949       -1.4626891681
 H          2.5292861101       -0.5960754693       -0.9489883556
 H          3.0482519247       -1.2246033556       -2.2780160261
 O          1.8572501911       -1.9904474599        1.5177035256
 H          2.7738208611       -1.6720714572        1.5291725842
 H          1.8203122958       -2.7808783491        2.0867758435
 O          6.7621509014       -1.2831483635       -2.8707274440
 H          6.9570932261       -1.2442748644       -1.9111337944
 H          7.0508550516       -0.4085292195       -3.1953030385
 O          4.1834217952       -0.8962773648       -3.5583216771
 H          3.8986776498       -1.3296887895       -4.3808733644
 H          5.1067638639       -1.1596290601       -3.3713479685
 O         -2.2742874360       -2.9952513048        0.7789550996
 H         -1.8583325076       -2.8265276088        1.6504469806
 H         -2.4182324371       -3.9415451013        0.7283269653
 O         -3.5816130281       -1.8211569024        3.1300138378
 H         -4.0329600126       -1.3440177232        2.4100737431
 H         -4.0483065411       -1.5917634151        3.9588186695
 O         -4.3384706404        1.2191141310       -5.6089670046
 H         -4.0925416488        1.7962666538       -4.8489303401
 H         -3.9545464610        1.6375962414       -6.3808479569
 O         -0.1280712615       -0.1734137567        6.4740782803
 H         -0.1380176869       -0.0753737642        7.4257166759
 H          0.5443555427       -0.8696957497        6.2632171305
 O         -2.3906221366       -2.1212365347       -2.6443630838
 H         -3.2562768489       -2.3885886970       -3.0211015428
 H         -1.7981693401       -1.9565823330       -3.4023984231
 O         -6.9230677467        3.4204963216        1.6715291059
 H         -7.2238120577        3.2864345414        0.7246861477
 H         -7.4975406309        4.0927888831        2.0377263389
 O         -1.1373125631       -2.0201354375       -5.0488730257
 H         -1.0537595101       -2.9809302241       -5.0889719832
 H         -2.0016413536       -1.7881567701       -5.4640370494
 O          3.2904943496       -5.5451741579        2.5348623928
 H          4.1443549669       -5.0950309393        2.5640109365
 H          3.0870149272       -5.6582647044        1.5867635529
 O         -4.1769137637       -4.6865577335       -0.9363190199
 H         -4.9392916272       -4.9288947548       -1.4739679351
 H         -4.1656422511       -3.6962072201       -0.9715021028
 O          1.2676236330        1.7899854498        1.9996593387
 H          0.4022675115        2.1939796068        1.8265330736
 H          1.1454764985        1.0671750863        2.6562233792
 O          3.2911794659        3.4177781707       -0.5127336383
 H          3.1646692446        2.4558391419       -0.3780778448
 H          2.6324931742        3.7019282020       -1.1592771404
 O          7.5309038046        3.0332953086       -0.7190331574
 H          6.9247023505        3.7670573662       -0.9455494714
 H          7.7062861517        3.1140957028        0.2331945338
 O         -6.5236705553       -4.1845969408       -2.3874829956
 H         -7.3089776345       -4.5986765967       -2.7443763256
 H         -6.8306984262       -3.4574238850       -1.8100987255
 O         -4.2822548827        3.9564980196        1.0716159246
 H         -5.2272001847        3.8097317044        1.2573558161
 H         -3.8580650576        3.8809171038        1.9408350901
 O          1.4258163771       -3.1360315396       -3.7168838379
 H          2.0434969955       -3.7505948543       -3.2501890326
 H          0.6754706394       -3.6922429780       -3.9934501271
 O         -5.2768968682       -4.3756318453        1.6074376223
 H         -4.5855875256       -4.5635204806        2.2583313021
 H         -4.9018604738       -4.6023395372        0.7390950294
 O          5.8063179182       -3.8184876899       -2.6686108230
 H          6.4997847181       -4.4729538370       -2.5783205598
 H          6.2383850869       -2.9812873293       -2.9131253208
 O          3.0045607485       -2.2595410108       -5.5938297167
 H          3.3997846869       -3.0038164047       -6.0469104049
 H          2.3932673997       -2.6355413820       -4.8990075238
 O         -5.8618781054       -0.1032562348       -3.6873835590
 H         -5.0051350881        0.1293623433       -3.2441509100
 H         -5.8282715509        0.3485902485       -4.5361234384
 O          3.8490807438        4.2501967583       -3.4479809127
 H          4.0095807232        3.3013652667       -3.3250949893
 H          4.5286390413        4.6808033063       -2.9142926576
 O         -3.5251981778       -1.3605433306       -5.9473090306
 H         -4.0571724154       -1.9501309552       -5.3909519592
 H         -3.8582422794       -0.4577174967       -5.7669147516
 O          4.4224244827       -0.8503701393        1.2097386973
 H          4.5849759632       -1.5081605506        0.5174601320
 H          5.1999467421       -0.9085613706        1.7997337693
 O          3.8842589503        3.3207745921        4.9694849546
 H          3.6476629025        3.7134687053        4.1222593347
 H          3.1061183318        2.8111313601        5.2376913431
 O          5.4406607428        1.0707407773        5.2336691754
 H          5.1882923551        1.9726879221        5.4804284490
 H          4.7987245043        0.8615901742        4.5091363148
 O          1.5680642047        1.7202695103        5.1106813957
 H          1.0460370675        2.4780468516        4.7832122991
 H          0.9380507693        1.1304027068        5.5498861887
 O          4.4144343976       -1.2342843521        6.2427811986
 H          4.9394448694       -1.5940303264        6.9568749521
 H          4.8207568445       -0.3738459634        6.0024499296
 O          7.2534939540        2.9912930832        2.0584966971
 H          6.2981319548        2.7390443898        2.0205037134
 H          7.3175413727        3.7308004119        2.6633094682
 O          5.4694367407        4.7316507180       -1.1497404436
 H          5.4120586106        5.5620671442       -0.6780948760
 H          4.6906049353        4.1900167444       -0.8560856011
 O         -3.7281804950        1.5732050932        4.6573133589
 H         -3.3885609251        2.4702299211        4.5031816581
 H         -4.5392111881        1.5384007120        4.1185678698
 O         -2.8968470687        3.9017036727        3.5376594572
 H         -2.1571773001        3.5650615390        2.9786583355
 H         -2.5486580999        4.6548489366        4.0156474661
 O         -1.3773558587        5.6014572466       -2.0057138312
 H         -0.4410876398        5.4963139866       -2.2095844337
 H         -1.7215339395        4.6824395257       -1.8327195417
 O          7.6494797752        0.7046232930        3.6631678468
 H          6.9603651970        0.8611734976        4.3359098237
 H          7.6564994243        1.4848373751        3.0876545563
 O          1.6964952714       -1.8580943328        5.5876103501
 H          2.5844681484       -1.6383923575        5.8993866860
 H          1.5664687237       -1.3560872203        4.7539316382
 O          4.3761099860       -2.9841006277       -0.4644444364
 H          4.9179118135       -3.2712196628       -1.2164678968
 H          3.6107217466       -2.4695287843       -0.8499749309
 O          5.6498415558        1.2228894978       -0.4392569811
 H          6.3653648716        1.8841919823       -0.5973454843
 H          5.2126470399        1.5176708351        0.3883082846
 O          0.9879737784        4.9289322420        0.3581911900
 H          0.1963742337        5.4194517243        0.5998291683
 H          1.1671188768        5.1093106462       -0.5755808790
 O         -4.9280467700       -0.2954593957        1.4195918092
 H         -4.7432199761        0.2844262085        0.6451920560
 H         -5.2607837847        0.3304769548        2.0955717491
 O         -5.1065471518        4.2825825652       -1.6615974174
 H         -4.5948525662        4.0962326472       -0.8582916311
 H         -5.0220974164        5.2208848174       -1.8348472527
 O         -4.7820647122       -2.6010348835       -3.8317003788
 H         -5.3218716118       -3.2838966748       -3.4025482839
 H         -5.2875036036       -1.7705396216       -3.7181618363
 O         -2.3268635894        4.9562547789       -4.5299113929
 H         -2.1672170671        5.5043786583       -3.7455502730
 H         -1.5037268443        4.4463097604       -4.6340196164
 O         -7.5615336316        3.2190005176       -0.8356703749
 H         -6.7607243393        3.5699457404       -1.2595750662
 H         -7.6151774355        2.2806685272       -1.0913728680
 O         -1.9629779666       -2.0792825620        5.5400750632
 H         -1.3986425071       -1.3544800685        5.8586515589
 H         -2.8707698193       -1.8160101919        5.7212110043
 O         -1.6505511086       -4.5343428054       -1.9165167259
 H         -2.4875959771       -4.8959718436       -1.5753917231
 H         -1.8622820006       -3.5785130350       -2.0646176531
 O          0.8753485429       -0.6214109883       -6.1919711082
 H          0.2059688824       -1.1286004116       -5.6851920637
 H          1.6848605188       -1.1548353879       -6.1585523078
 O         -1.5627962750        0.6706388455       -6.7046961923
 H         -2.1555292042       -0.0578794917       -6.9145101785
 H         -0.6668363342        0.3560691456       -6.8758959650
 O         -0.2010020719        3.3007913690       -4.1222802538
 H          0.4345041876        3.0332105620       -4.7990416115
 H         -0.7230439570        2.4863352271       -3.9446012008
 O         -0.7052920821       -4.7074708287       -4.3851553456
 H         -0.5175432921       -5.6092404004       -4.6438253710
 H         -1.0901968297       -4.7480709512       -3.4746780728
 O         -3.7285693806        2.9015116210       -3.6313573529
 H         -4.4200717201        3.2748188396       -3.0641338472
 H         -3.2845833070        3.6735142958       -4.0587050826
 O          4.3954276821        1.6162289661       -2.7366400761
 H          4.3405172270        0.7317830440       -3.1480400926
 H          4.7544076412        1.4685098598       -1.8309785904
 O          7.1898901818        1.3936601598       -3.1682430895
 H          6.2747596642        1.7090706894       -3.2127087646
 H          7.6299564677        1.9537394052       -2.5201455717
 O          2.8026521065       -5.1949627114       -0.1422814928
 H          1.8601581675       -4.9070590029       -0.0913858575
 H          3.3297028815       -4.3772141212       -0.0985457063
 O          0.3130548739       -4.3371004391       -0.0154076697
 H         -0.2923375747       -4.5503202236       -0.7438246123
 H         -0.0757971235       -4.7416099306        0.7850436567
 O         -0.8915166996       -2.5066156727        3.0489617949
 H         -1.2723354597       -2.4595248957        3.9432319864
 H         -0.1049621040       -3.0641553063        3.1204852773
 O         -4.6796196606       -0.9507461965        5.4064764536
 H         -5.6145770026       -0.9210987684        5.1406271134
 H         -4.3688307150       -0.0338311125        5.4205194380
 O          7.3576254036       -0.7535926571       -0.2852475097
 H          8.1886938300       -0.2790201862       -0.3388670824
 H          6.6437613590       -0.0595881117       -0.2815492588
 O          3.1350999874       -4.9001721023       -2.8052291119
 H          2.9900092271       -5.1899290856       -1.8790253349
 H          4.0516206282       -4.6058170774       -2.8571475766
 O         -3.1222428844       -4.4369712786        3.3913044093
 H         -3.1960959786       -3.4627411525        3.2685772342
 H         -3.1122775583       -4.5827842700        4.3376066123
 O         -6.7637944225       -2.1734747093        1.8782719753
 H         -6.0912047547       -1.5012940139        1.6344581612
 H         -6.2865043334       -3.0328332441        1.8704808116
 O          1.4355488383       -3.9119316832        3.4311235294
 H          2.1276646140       -4.5744110557        3.1846216299
 H          1.7439072035       -3.4595108449        4.2283653991
 O          6.7821793422       -1.3957108150        2.3270097726
 H          7.1674090631       -0.6892798463        2.8971820502
 H          7.1946101977       -1.2927389596        1.4548377247
 O         -7.1856134857       -0.9187006310        4.1920034965
 H         -7.9735777947       -1.2401656772        4.6293505237
 H         -7.0846640707       -1.4593614254        3.3684196239
 O          4.7281038773        2.2480941097        1.8356879215
 H          4.1009961568        2.9977525565        1.8662406309
 H          4.3338962460        1.5661214636        2.4187425954
