  241
       -407.58337458
 H          0.0196360794       -0.2177654148        1.0690725291
 O          0.3180202578        0.7315868756        0.8449390781
 H         -0.4512025722        1.3681980160        0.6113466605
 H          0.7927081826        1.1643494105        1.6439083146
 O          1.1391376663       -0.4353429765       -1.4648326834
 H          1.2859108447       -1.3185475323       -1.8387244781
 H          0.2490441563       -0.1459371959       -1.7151892341
 O         -0.6131250320        0.0900175621       -4.5989711035
 H          0.2114620214       -0.2838053638       -4.9744400101
 H         -1.3240179444       -0.2148451822       -5.2015102218
 O          2.0523378690       -2.8656428036        0.2488169928
 H          2.7798628600       -2.4170824255       -0.2369278825
 H          1.2652443717       -2.7838328946       -0.3168088930
 O         -0.3511472132       -1.6758102097        1.3988256829
 H         -1.1892647742       -1.7046085323        1.9113933267
 H         -0.5116086199       -2.0559387961        0.5067056867
 O         -2.6287629058        5.6756045766       -3.6262098406
 H         -1.8212994144        5.9926386315       -3.1919248788
 H         -3.2671955478        5.5141662529       -2.9194255101
 O          1.2081523920        2.8684237847       -0.5646740781
 H          1.0229468694        2.5048859989       -1.4529737106
 H          2.0268150383        3.3970763428       -0.6443152517
 O          4.1910192519       -5.5522901354        2.0860419157
 H          4.8270159438       -5.0366202197        1.5635100846
 H          3.9194117251       -4.9785596275        2.8214394178
 O          5.5013955641       -2.4244941340       -2.7451359949
 H          5.2631958213       -3.3517135556       -2.6519188747
 H          5.0490356227       -1.9721813387       -2.0061055935
 O         -2.4683251626       -1.8102486352        2.9800758715
 H         -2.3411197262       -1.3005883959        3.8060375998
 H         -2.4146914234       -2.7543345857        3.2015170159
 O         -1.7437081327       -1.9524570136       -3.0870422506
 H         -2.5729922313       -1.6824836766       -2.6506255968
 H         -1.3351416164       -1.1398234090       -3.4358302889
 O          0.8091309634        3.3247026835        6.0370258487
 H          0.8546010599        3.8302932427        6.8486083234
 H          1.5771034020        3.6210548208        5.4857854465
 O         -4.8281585522       -0.8057322016        2.0325032681
 H         -5.2204036290       -0.5033799029        2.8564339556
 H         -3.9891539768       -1.2331669554        2.2926782694
 O         -4.8557541728       -4.0242704873        2.2607057890
 H         -5.6365616670       -4.5747766012        2.2198284070
 H         -4.9572680052       -3.4634937544        3.0764707279
 O          2.2356359117       -0.8866694415        2.0106574625
 H          2.0563099196       -1.6726647369        1.4511286545
 H          2.5010250879       -0.1832271760        1.3723487648
 O          3.0392950943        0.9885704222        0.3256677536
 H          2.2850955577        1.5205820262        0.0112246302
 H          3.6303560533        1.5688637196        0.8317183676
 O          3.1340014721       -3.8302189841        3.9764016104
 H          2.2834945269       -3.7451144845        3.4873797175
 H          2.9091754681       -4.1317203707        4.8567704824
 O         -5.3838284386        2.1197642605       -1.4621423565
 H         -4.8041471937        1.7986391373       -2.1943751579
 H         -5.9270824435        1.3556362775       -1.2293825750
 O          0.8437765976        2.0087804745       -3.0815624125
 H          0.7046811265        2.8331970383       -3.5598464027
 H          0.2457380914        1.3488894644       -3.4529859501
 O         -0.6378970619        2.4130287527       -6.0684257770
 H          0.2694711454        2.3239946024       -6.4372626361
 H         -0.7280938404        1.6252949077       -5.4983840618
 O         -5.0291435584       -2.7144025586        4.5225615712
 H         -5.0980281447       -1.7577457436        4.6353829832
 H         -4.2156727519       -2.9873648891        4.9914799718
 O         -2.6429854441       -3.5417536150        5.4657060333
 H         -2.5706927710       -4.3249085858        4.9108487955
 H         -1.7384373576       -3.1646995330        5.4754423101
 O         -2.2516596635       -4.6038382801        2.9131649384
 H         -3.1674759259       -4.6184554120        2.5891747757
 H         -1.7133832634       -5.0936626575        2.2851974707
 O          4.3430069515       -1.4463884413        3.4103786327
 H          3.5324311017       -1.2529885740        2.8640825031
 H          4.1513260305       -2.3159894857        3.7927043587
 O          4.8774376127        2.3167602112        1.8514665685
 H          5.6299635892        1.9291984327        1.3662922020
 H          4.8778605913        3.2662382540        1.7157620117
 O         -0.1105595394       -2.7230482716        5.1160305680
 H         -0.0635737883       -1.8450753326        4.6744708014
 H          0.1487235986       -3.3375167633        4.4106777241
 O         -3.9626411677        1.8427917626        0.7475213362
 H         -4.3599877575        2.0701790235        1.5936493364
 H         -4.5764495876        2.0457112156        0.0101912011
 O          1.5818583055        0.7598638431        5.8496384395
 H          2.4718476746        0.8338665485        5.4864736981
 H          1.2644007728        1.6768487790        5.9777137300
 O         -2.5005195286       -0.3556889807        0.3249322417
 H         -3.2682297286        0.2286038949        0.4451885611
 H         -2.8269532895       -1.2717328027        0.3187876540
 O          1.9259445476        1.8705444821       -6.4369813830
 H          1.9482958332        0.9118871820       -6.3180571306
 H          2.4304127867        2.2595044646       -5.7069165241
 O         -1.8191713683       -5.0755843626       -0.4467554512
 H         -1.2257354844       -5.6206214919        0.0921920608
 H         -1.7556729813       -5.3890087636       -1.3791282963
 O         -1.4583375459        0.5049972461       -1.9728017214
 H         -1.3483569433        1.4694649952       -1.9562077389
 H         -1.8173643703        0.2184253210       -1.1060731295
 O          3.1727715498        0.7409912778       -2.6522413255
 H          2.4124854228        0.3708178252       -2.1338193503
 H          2.7866283722        1.4576944158       -3.1838293341
 O         -0.0710238808       -6.0662710359        1.4129515232
 H         -0.0250222419       -6.9434625047        1.7931317122
 H          0.8051626747       -5.9250502193        0.9356949531
 O          2.6949128436        4.2223853482        2.0225144478
 H          1.9443342993        4.8548034606        2.1691569037
 H          2.9775097978        4.3491726143        1.1061127003
 O         -1.4831983335       -5.5565410532       -3.0211683587
 H         -2.1789907220       -5.1830165640       -3.5796914144
 H         -0.6651661276       -5.1383622794       -3.3374707534
 O         -1.5816938414        3.2182033801       -2.1635476685
 H         -2.4452406600        3.6669274327       -2.0787790419
 H         -1.0937537516        3.6661256655       -2.8772099669
 O          3.8688475383       -4.5011439776       -1.6402402103
 H          3.2138115143       -3.8316222264       -1.9402968049
 H          3.3434611902       -5.1572816990       -1.1574982774
 O         -3.8506931944        4.4658267161       -1.4194808293
 H         -4.5765249102        3.8290146368       -1.4475651685
 H         -3.6124108821        4.5955218808       -0.4876294815
 O         -4.4650790965       -1.0727389522       -4.5870365641
 H         -4.4920821840       -1.5859752189       -3.7657843899
 H         -4.3662458081       -0.1542740182       -4.2610040210
 O          1.4640749725        1.9493778711        2.7403955506
 H          1.8409230245        2.7878027833        2.4009420608
 H          2.1887265620        1.5125574546        3.2167962957
 O         -1.4230701599        2.4784408143        0.3838575764
 H         -2.3577886282        2.2639167993        0.5755890070
 H         -1.3859758547        2.8099457852       -0.5300103756
 O         -0.4652228438       -0.7761768362        7.0560139751
 H         -0.2524484955       -1.6819655313        6.8008403725
 H          0.3146225846       -0.2495492041        6.8318253784
 O          3.7821665135        1.1290894866        4.0470962057
 H          4.2702373224        1.5562650705        3.3205161343
 H          4.0795154411        0.2010387381        4.0221302941
 O          3.0664539561        3.7981597100        4.7475571912
 H          3.4791922791        2.9268812239        4.7085631258
 H          3.0179288714        4.1097992526        3.8314064618
 O          2.2085076576       -5.5097674998        0.3412649429
 H          2.9148214225       -5.6924028764        1.0061297432
 H          2.1319738006       -4.5245402675        0.3414544205
 O         -3.7340464030        1.1925642886       -3.3404884570
 H         -3.5141133362        1.9513808144       -3.9227947637
 H         -2.8943235469        0.8959162158       -2.9349905926
 O         -0.2866754106        5.0783696163       -0.1721191100
 H         -1.1913418848        4.8968299111        0.1405322462
 H          0.1694974161        4.2070868538       -0.2586446353
 O         -0.4210902959       -2.8492620253       -0.9432988323
 H         -0.8694893325       -3.6990898077       -0.7719156252
 H         -0.8306991179       -2.4961058097       -1.7582179499
 O         -0.1233709522        4.2568432022       -4.2780623360
 H         -0.4523688562        5.1303843863       -4.4921574855
 H         -0.3460384846        3.6678080254       -5.0408391956
 O         -1.7220878867        0.9723358720        2.6562111609
 H         -2.0187968327        0.3582309025        1.9689771339
 H         -1.0898892706        0.4866118507        3.2192038425
 O         -5.9672073717       -0.3645979861       -0.3505724661
 H         -5.5305183292       -0.4906085236        0.5210669848
 H         -6.7920490109       -0.8475173707       -0.3056325190
 O         -3.0825067197        3.2375928987       -4.9116060772
 H         -2.9636042600        4.1374955582       -4.5644911214
 H         -2.3775697441        3.0785430176       -5.5490166718
 O         -2.2908037023       -0.2056348276        5.2073708283
 H         -3.1913530997       -0.2876283578        5.5343110577
 H         -1.6826538234       -0.4558355857        5.9419774274
 O         -4.2046558532       -1.7443076317       -1.9539970401
 H         -3.9573265842       -2.3383145786       -1.2186338127
 H         -4.8109010361       -1.1015712339       -1.5500186285
 O         -1.2934124915        3.7159880863        2.9274326953
 H         -1.4987406836        3.3891411089        3.8273267490
 H         -1.1019875129        2.9131953668        2.4183429222
 O          3.5819716599       -1.3320474271       -4.2158628497
 H          3.5157686783       -0.5020831301       -3.6809259969
 H          4.4320407661       -1.7321492113       -3.9362793169
 O         -5.1570120373        0.0865746518        4.7660210446
 H         -4.7128841647        0.8599506669        4.3246996690
 H         -5.8792218110        0.4370495834        5.2859978955
 O         -3.3621886194       -2.9535382696        0.2640293643
 H         -3.9852066891       -3.2233815860        0.9597152146
 H         -2.8378256177       -3.7423201248        0.0456350605
 O          3.4950839386        4.2466721665       -0.6685952287
 H          4.1373130336        3.5671280946       -0.9927599790
 H          3.2666512643        4.7937828731       -1.4322725628
 O         -2.7609237963        4.9424248969        1.0903954539
 H         -2.3193943389        4.4249304829        1.8082289690
 H         -2.9703534694        5.7968823906        1.4665025208
 O          3.2218040213        3.0397951594       -4.2052146070
 H          2.8407468233        3.8367081064       -3.7982152890
 H          4.1561159749        3.0345390197       -3.9881224915
 O          5.8942553820       -1.5073235798        1.2470018483
 H          5.9900177394       -2.4451047704        1.0051007502
 H          5.4239108524       -1.4887782611        2.1117380331
 O          5.0488816866        2.3181897484       -1.5805196874
 H          5.6301166265        1.8254040924       -0.9877499696
 H          4.4041855760        1.6616180971       -1.9258289823
 O         -0.1632404742        6.3693272497       -2.4283844691
 H         -0.2357719944        5.8662949165       -1.5719570257
 H         -0.0805921880        7.2923622977       -2.1879706303
 O          2.3704414502        5.3837972020       -2.9778749682
 H          1.4118366454        5.5545311860       -2.8786815977
 H          2.7148206951        6.0936803596       -3.5208749342
 O          5.6763101144       -4.0491267361        0.2763089113
 H          4.9916576059       -4.1174230101       -0.4360342595
 H          6.4585842468       -4.4792918322       -0.0695360893
 O         -3.9477792707        2.0734199080        3.5519970566
 H         -3.6333693355        2.6753658706        4.2324767421
 H         -3.1204244501        1.6235381232        3.2327867086
 O          0.7520776119       -3.7532829597        2.7754817376
 H          0.4286779229       -4.5533875599        2.3390440353
 H          0.4616985735       -2.9920171667        2.2315350454
 O          4.0398265536       -1.3522283905       -0.6947519182
 H          4.7060822805       -1.3699274021        0.0196297517
 H          3.6189595589       -0.4789894306       -0.6362119335
 O          0.2648146131       -0.4167902517        3.8333785099
 H          0.9524688493       -0.6271031109        3.1720774493
 H          0.7085435791        0.0777290362        4.5489572488
 O         -2.4604895676       -0.8278550644       -6.2725808192
 H         -2.7741314220       -0.2531677467       -6.9711382671
 H         -3.2391327855       -1.0107022067       -5.6863065643
 O          2.0325708604       -2.7602762288       -2.6021027315
 H          1.4469743009       -3.3122767936       -3.1454431918
 H          2.5991913969       -2.2532637655       -3.2280399884
 O         -0.7812411811       -3.0594272721       -6.2522705973
 H         -1.1575134171       -2.1812344595       -6.4096044352
 H         -1.5490880122       -3.5733441715       -5.9441573015
 O          0.6216095379       -4.2770589845       -4.3350943836
 H          1.1019692701       -4.9571511901       -4.8081196634
 H          0.1451794650       -3.7460909574       -5.0118484353
 O          0.5360044514        5.6512586721        2.3496530337
 H         -0.0687405772        5.0019909450        2.7544581646
 H          0.2764526085        5.6740364385        1.4117282597
 O          6.6346552387        0.9284086742        0.3476542846
 H          6.3977787308        0.0228787520        0.6369019623
 H          7.5884118147        0.9472414057        0.2684686677
 O         -1.7882865388        2.5571073360        5.2959083394
 H         -1.8445732001        1.5854080286        5.2309466353
 H         -0.9160410341        2.7653434468        5.6584359126
 O          1.5266575288       -0.9141072515       -5.8481057062
 H          1.2587986381       -1.7017768455       -6.3262317400
 H          2.3345280242       -1.1346085134       -5.3421139660
 O         -2.8802043550       -3.7981739530       -4.6829631356
 H         -2.4569197527       -3.1243374402       -4.1040827183
 H         -3.7392428971       -3.4465599374       -4.9224436923
