  114
       -193.39726957
 O          3.8900194918        2.9120811402        1.5954056773
 H          3.2104398657        3.3101022928        1.0273325352
 H          4.5692622764        2.5722982034        0.9956502522
 O         -0.1145506986        2.1150188967       -3.4379912929
 H          0.7672405552        2.5150308217       -3.4351196228
 H         -0.0499097727        1.3038960479       -3.9720439149
 O          2.8702327561        1.5679451678        3.6336147150
 H          3.2957476919        1.9416709685        4.4075891889
 H          3.2317822959        2.0760635659        2.8666185769
 O          0.2020524321       -0.4146625697       -4.5175000025
 H          1.1734555547       -0.4059206271       -4.5514820323
 H         -0.0223153914       -1.3378944006       -4.2999725950
 O          2.4808197215        3.0883907203       -2.9629800651
 H          3.2402860008        2.4731204063       -2.9742078301
 H          2.7450722061        3.8757522307       -3.4408316448
 O         -1.9925185426       -2.5480773477       -0.0742035298
 H         -2.8596354652       -2.5241836341       -0.5286128549
 H         -2.1579517830       -2.9334254983        0.8084209166
 O          4.6089106475        1.3849350143       -2.7259444640
 H          4.9523019244        1.4442920335       -1.8093615571
 H          5.3611418573        1.4965629709       -3.3101153963
 O          5.5931772403        1.5178152074       -0.1911076147
 H          5.3003315996        0.7144462097        0.2917187643
 H          6.5407105709        1.5854374811       -0.0629171915
 O         -3.2925628060        4.6220612123        0.1841129447
 H         -2.3795782226        4.8842610171        0.3629856904
 H         -3.2692493141        4.2403280188       -0.7049863371
 O         -3.8938737016        0.6605407631       -1.6199497533
 H         -3.2827438908        0.4768366947       -0.8676870603
 H         -3.4351635833        0.3711768243       -2.4351865351
 O          0.1815347213        1.7415669787        4.4602722933
 H         -0.3162123672        2.0705480030        3.6905080424
 H          1.1090712957        1.7319574207        4.1837480492
 O         -2.5384770986       -3.2367771582        2.4724466969
 H         -3.2703323314       -3.7829321671        2.7598628912
 H         -2.7742794392       -2.2971607695        2.6921286687
 O          2.8701804516       -0.6043673585       -3.9496260291
 H          2.8703025274       -1.4160232767       -3.4208261185
 H          3.5410093721       -0.0233458773       -3.5756449951
 O          3.1627396696       -1.1084214063        3.4512197917
 H          3.1596149716       -1.4954386755        4.3278282883
 H          2.9450715365       -0.1581048902        3.5599138377
 O          0.1564371876       -0.6196296459        1.7787103891
 H          0.6039716790       -1.4797563501        1.6811539221
 H         -0.1641998918       -0.6151537983        2.7088260748
 O          4.4956799038       -0.5059328693        1.1357806673
 H          4.3844409467       -0.7245352367        2.0717478164
 H          4.4165034780       -1.3695224570        0.6624820057
 O         -0.5054040753       -2.8638688157       -3.4574770969
 H         -0.2152243622       -3.1614877777       -2.5903490410
 H         -1.4588824121       -3.0208660644       -3.4859070488
 O          3.9842556698       -2.8385225101        0.0274061845
 H          3.2797355738       -3.1765165933        0.5959499455
 H          3.6793501320       -2.9489558232       -0.8883848466
 O         -3.3346401655       -2.9659067299       -3.3723306363
 H         -3.9353199032       -3.4017242961       -3.9782275905
 H         -3.8353972382       -2.7789237827       -2.5609894476
 O         -1.1577563979        2.0566196294        2.1092308708
 H         -2.1270107480        2.1933630894        2.1150738214
 H         -1.0115703235        1.1649998506        1.7672355488
 O         -5.5445147380       -1.3114481958        1.4008896373
 H         -6.4239107557       -1.5563005201        1.6894242919
 H         -5.6162773125       -0.3675223373        1.0754703799
 O          1.9203329218        3.2297443936       -0.2416408131
 H          2.0757113383        3.2729909346       -1.1987211985
 H          0.9842933334        3.5320489623       -0.1064597629
 O         -2.2395962447        0.0852012378        0.3655828653
 H         -1.4953829085        0.5437206076       -0.0760916305
 H         -2.0633145522       -0.8709682766        0.2292407451
 O         -2.5602477893       -0.2862154325       -3.7070197246
 H         -1.7005476115       -0.1775183891       -4.1269510033
 H         -2.7791445541       -1.2279575794       -3.7599194309
 O         -5.5901146579        1.1390970577        0.5275810065
 H         -5.2550564808        1.1419436320       -0.3787517825
 H         -4.9604368118        1.6780664217        1.0431634046
 O         -0.0439864135       -3.3295543455        3.6604657225
 H         -0.1733574408       -2.4886240720        4.1244566218
 H         -0.9026454404       -3.5141720077        3.2474463626
 O         -2.3701212970        2.9774092375       -1.8821495186
 H         -1.8318555739        2.8419707317       -2.6708780117
 H         -3.0130058304        2.2462080965       -1.8583590525
 O          1.7418438646       -2.8291174133        1.7982557784
 H          1.1422249554       -3.2290116043        2.4754446251
 H          2.3563463287       -2.2890126317        2.3260929595
 O          0.5067746053       -3.3786290291       -0.7150919480
 H         -0.4217034715       -3.1468654995       -0.5225856543
 H          0.9534206871       -3.3604994503        0.1420689306
 O         -4.4583907249       -1.9973876722       -1.0341426105
 H         -4.9241516299       -1.9539019007       -0.1788546008
 H         -4.4313819390       -1.0702945594       -1.3427536463
 O         -0.7846250444       -0.6999848374        4.2646720014
 H         -0.4515850552        0.1863984757        4.5466702939
 H         -1.7355506161       -0.6069045091        4.1314504677
 O         -3.2536698999       -0.7067078472        2.7902889835
 H         -4.1754777562       -0.8632836514        2.5234909849
 H         -2.8618845042       -0.2558810243        2.0197336641
 O         -3.7816971545        2.6873185480        1.8921138366
 H         -4.1942232812        3.0769650862        2.6642764919
 H         -3.6551961167        3.4317841797        1.2416507836
 O         -0.6075027278        3.7836131821        0.1072269871
 H         -1.1315484595        3.4267018738       -0.6320336223
 H         -0.7750348805        3.1914118273        0.8683283367
 O          2.6241387730       -2.9397133661       -2.3678125610
 H          2.6649473872       -3.6372822951       -3.0248264843
 H          1.7913573377       -3.0803302085       -1.8751593952
 O         -0.2743191666        1.0517288667       -0.9263025236
 H          0.5869261570        0.6440834073       -0.7296600883
 H         -0.2268438093        1.3771938612       -1.8384193747
 O          7.1187961632       -0.9486426122       -0.1146396572
 H          6.3706776287       -0.9441556548        0.4973022510
 H          6.8727565390       -1.5540244634       -0.8158316984
 O          2.3633535912        0.5204028911       -0.5605681497
 H          2.8007129685        0.1182769503        0.1944033014
 H          2.2872116677        1.4672338893       -0.3522608048
