  192
       -320.54352549
 H          3.6872053146       -1.4467741662       -1.6948782327
 C          3.2473848878       -1.0686682004       -0.7723337177
 H          3.6215936249       -1.6609255132        0.0594971564
 C          1.7368784227       -1.1901407831       -0.8785380486
 H          1.5022069866       -2.2460453335       -0.9543386873
 H          1.3887611979       -0.6523015832       -1.7567651771
 O          3.6532112070        0.2653271387       -0.5333651013
 H          3.1409757986        0.8361991879       -1.1695494909
 N          1.0767971458       -0.6245711562        0.3057297958
 H          0.0329998713       -0.6220309453        0.1861243361
 H          1.3605806996        0.3828192773        0.4485480987
 H          1.3216368979       -1.2155639695        1.1295346077
 O         -0.1743734018       -5.3530517738       -3.8070904953
 H         -0.6366074268       -5.4498736006       -2.9491833056
 H         -0.8329646208       -5.0086458871       -4.4183812175
 O          1.7360536191       -3.6626865213       -3.1519673073
 H          1.1869401751       -4.3868729225       -3.5382052591
 H          2.0429079080       -3.9996852990       -2.2901476252
 O          1.2736674392        0.6461579803        3.0446444744
 H          1.5263858183        1.5852746071        3.1408659788
 H          2.1213586783        0.2365321783        2.7884747597
 O          0.2201158919        5.1154401966        0.0685338758
 H         -0.0593264482        6.0256887237        0.1626710370
 H          0.2467434658        4.7368964983        0.9856326008
 O          1.3720940264        4.1637679405       -2.3363130433
 H          1.0081290251        4.6154693769       -1.5605947807
 H          0.6072550542        3.7414875513       -2.7733288381
 O         -2.9811278949       -1.3544863748       -1.8805421279
 H         -2.2343287204       -1.4930384414       -2.4728444726
 H         -3.6323487997       -0.8157390759       -2.3663807621
 O         -3.7829068004        0.3541280027        1.9264942980
 H         -3.6307420736        1.3036565159        1.7639450405
 H         -4.2716158015        0.0397403355        1.1524856249
 O          4.3017912037       -3.5870705763        1.0182442541
 H          4.9481922974       -3.3305788833        0.3382297563
 H          4.6401259488       -3.2172734560        1.8596262879
 O         -6.8490942851        1.6316242311       -3.2468389587
 H         -7.6860167737        1.7423039633       -3.6967685283
 H         -7.0312928795        1.7085826297       -2.2648228341
 O         -1.5833616518       -0.3845871498        0.1933028369
 H         -1.9241103576       -0.9962318419        0.8829599909
 H         -2.1336739157       -0.5503184216       -0.5939221659
 O          1.7502792098       -2.5914857692        2.0238059681
 H          2.5873828001       -2.9926948609        1.7551710753
 H          1.8646134908       -2.3107011195        2.9566862131
 O          4.6962013964       -2.1311230012        3.2658848268
 H          4.3521298949       -1.3340711756        2.8042203087
 H          4.0239007580       -2.3367959446        3.9272546954
 O         -6.1529215776       -2.3669283200       -1.7758848516
 H         -5.4238828786       -3.0188980597       -1.6636535486
 H         -6.9506731050       -2.7707680563       -1.4338785208
 O         -0.4193328339       -3.3139655334        0.2583663264
 H          0.4109243084       -3.3744207843        0.7477783590
 H         -1.0747104621       -2.9939417668        0.9064278260
 O          4.2301545476        4.0293009315        1.8892329926
 H          4.4471625491        4.9614958303        1.8948565888
 H          3.9835012220        3.7952693626        0.9667258176
 O         -1.5182708369       -5.2154912601       -1.4407161879
 H         -2.4288628717       -4.8800525624       -1.4353995770
 H         -1.0496657571       -4.7123121361       -0.7567208670
 O         -0.3559971890       -0.1380626250       -3.7841866720
 H         -0.3138697122       -0.9340894568       -3.2298902267
 H         -1.1785657741       -0.2263099322       -4.3027329409
 O         -0.5287473452       -2.4857500499       -2.3866596993
 H         -0.5859341795       -2.7503901455       -1.4497639185
 H          0.2982805291       -2.8976235294       -2.7236212962
 O         -7.0290414558        1.8797456580       -0.6665510223
 H         -6.4900251484        1.1132163573       -0.3922969741
 H         -6.4792434128        2.6637581230       -0.4904306691
 O          6.0510856740       -2.6463250859       -0.9744989738
 H          6.6358593996       -3.3227536408       -1.3190798840
 H          6.5913082933       -2.1014689217       -0.3566135720
 O          2.2387214778       -4.4527564354       -0.5917135634
 H          3.0051348057       -4.2268868551       -0.0389745952
 H          2.0361316801       -5.3745476288       -0.4274775615
 O          7.4684179963       -1.0747312819        0.6260927232
 H          8.4171206314       -0.9561941834        0.6697675618
 H          7.0770213883       -0.2032086004        0.4127611529
 O         -2.6052465502        3.9168488878        3.5037429074
 H         -2.5796196372        3.1143148483        4.0528470150
 H         -1.6807971178        4.1544202353        3.3323801771
 O         -0.2848692844       -1.9417420350        5.7944669811
 H         -0.5042731996       -2.5194312630        6.5248417452
 H         -1.1062316902       -1.8130184664        5.2767183960
 O          5.5555105019       -0.5513904097       -2.9283571964
 H          4.8996380764       -0.9514192275       -3.5147017608
 H          5.7837095795       -1.2291723415       -2.2753716974
 O          1.4034690780        2.0142039469        0.5897812620
 H          0.5731822936        2.2799973818        0.1623316839
 H          2.1323851898        2.4785408173        0.1510433178
 O          6.1746164527        1.1868901448       -0.0553503918
 H          6.3741447469        1.7404406874       -0.8175756254
 H          5.3063558573        0.7887739016       -0.2715680300
 O         -0.6119335346        2.4841135845       -3.1002821503
 H         -1.3554595197        2.6043650859       -3.7327179374
 H         -0.3394991842        1.5576684521       -3.2360217719
 O          2.0074651089        1.4592995095       -2.1618859048
 H          1.8925940708        2.4194149587       -2.1974344075
 H          2.1470707040        1.1648275233       -3.0833459016
 O          3.4265178969       -1.8952951098       -4.3257816065
 H          2.8184554972       -2.5338694083       -3.8976945121
 H          3.7032149241       -2.2996327349       -5.1494967904
 O         -0.0124181679        3.9580825867        2.4334536324
 H         -0.3459382074        3.0727005178        2.1727726342
 H          0.7901311785        3.7842930746        2.9474716226
 O         -5.1671328736       -0.6239708768        3.9226418646
 H         -5.5500483487        0.0666666981        4.4635042926
 H         -4.6056149667       -0.1692472098        3.2390461775
 O         -1.0986558960        2.7897777743       -0.5328905468
 H         -0.9546994255        2.6224659598       -1.4954827359
 H         -0.8184833570        3.7074671133       -0.3913553194
 O          3.7204093637        0.0941777419        2.1520410369
 H          4.3827085558        0.7498238494        2.4551224097
 H          3.6549587444        0.2326846558        1.1907452757
 O          0.2036933537        0.8014699387        5.5847989726
 H          0.0683935298       -0.1062377767        5.8883869344
 H          0.6904087291        0.7216406668        4.7442123634
 O         -6.3244458061       -1.8583404692        1.7874356451
 H         -6.1716226410       -1.1615195961        1.1363570243
 H         -6.0656261311       -1.4816872472        2.6505365084
 O          5.6962903601        0.0729457374        4.7332174107
 H          5.9925786637        0.7013428005        4.0603844166
 H          5.6519753565       -0.7947393508        4.3006465138
 O          2.2213757376       -1.7495775203        4.5424743112
 H          1.3860597778       -1.8886676118        5.0122503353
 H          2.4706049974       -0.8178332112        4.6979091439
 O          3.1928058301        0.8182994443        5.1432564205
 H          4.1481318685        0.5717673611        5.0569409290
 H          3.0161273504        0.9437591053        6.0762622027
 O         -4.4922950132       -3.6582557095        1.3679393436
 H         -4.7257995307       -4.4425228262        1.8642295466
 H         -5.2321073998       -3.0009363744        1.5093917470
 O         -5.3028087082       -0.1818283148       -0.3004711208
 H         -5.5640181672       -0.9190067561       -0.8808520513
 H         -4.6061466645        0.3211770418       -0.7893608948
 O         -1.0028588850        1.4791894553        2.0279912427
 H         -0.1762647100        1.0448209646        2.3178795583
 H         -1.3485428141        0.9433982336        1.2931114200
 O         -2.2296489802       -2.2614619350        1.9466375668
 H         -3.0624144857       -2.7393016729        1.7894922570
 H         -2.2796426551       -1.8999437626        2.8580684814
 O         -3.4291199631        1.2623826633       -1.5150156349
 H         -3.8199383956        1.9639999295       -2.0712673028
 H         -2.7102556674        1.6650453652       -1.0180957176
 O          5.0741412761        2.1331555931       -2.4046269009
 H          4.6267274963        2.5171314656       -3.1819356110
 H          5.2309193055        1.1983558600       -2.6313907922
 O         -3.9127082961       -3.7645664077       -1.2875771923
 H         -3.4862548364       -2.8887386309       -1.4358166655
 H         -4.0650147085       -3.8185562247       -0.3257594712
 O          5.7101585128        1.8341489728        2.5503231526
 H          6.0707243187        1.6459837887        1.6660252499
 H          5.2921296002        2.7068338637        2.4741067165
 O          3.5327816668        3.3700012485       -0.6095984839
 H          4.1564401834        2.8729958648       -1.1892603365
 H          3.0595750414        3.9680291034       -1.1988585480
 O          3.3926750344        3.0769632046       -4.3274555929
 H          2.9577963978        2.3104575401       -4.7255367835
 H          2.7029311085        3.6665808942       -4.0087955074
 O          2.1382052263        0.5348509786       -4.6705602479
 H          2.6467615341       -0.2920783184       -4.6266836548
 H          1.2007680202        0.2795893752       -4.6118235480
 O         -5.0649744015       -0.4325059044       -3.4195074585
 H         -5.6609616299        0.3372306063       -3.4301861857
 H         -5.6005900501       -1.1790949631       -3.1184458119
 O          2.3250758250        3.0510037928        3.6399022069
 H          3.0299049281        3.3751940849        3.0555357348
 H          2.7407967254        2.4746722066        4.3018211626
 O         -2.4285699913       -3.4286203456       -4.1159256749
 H         -3.1276467205       -3.8672523124       -3.6259479994
 H         -1.7264368099       -3.2270100250       -3.4675509785
 O         -2.7616456633       -0.7396713792       -4.8630816021
 H         -2.6689756530       -1.7054017416       -4.9019533494
 H         -3.6444327424       -0.5851069970       -4.4875564993
 O         -4.6547791480        3.1915089737       -2.9314196626
 H         -5.4798397493        2.7459040633       -3.1948867388
 H         -4.8699096162        3.7010814838       -2.1342564783
 O         -2.5365338247       -1.2999099408        4.4296637412
 H         -2.4058515508       -0.3136554818        4.4227809488
 H         -3.4956437921       -1.3994151667        4.5139901520
 O         -2.1421184530        1.3168000321        4.4221313014
 H         -1.3270320626        1.2908716464        4.9718456731
 H         -1.8237208545        1.3516257894        3.4919545695
 O         -5.2456495200        3.9662590840       -0.3398795215
 H         -5.5435982900        4.7621825605        0.1003577681
 H         -4.5384659667        3.5760038056        0.2311574707
 O         -2.6793865688        2.4050338258       -4.7410206005
 H         -2.8588970909        1.4873382449       -4.9668936991
 H         -3.4387107040        2.7417443934       -4.2441596805
 O         -3.3347456216        2.9335819578        1.1752385851
 H         -3.1267597063        3.3723662906        2.0394819986
 H         -2.4944121831        2.8735623202        0.6931718487
