  99
       -167.96951080
 O          4.1163814102       -2.8180192968       -0.4456086786
 H          3.3807710946       -2.7863185040       -1.1181947208
 H          4.6423836118       -3.5786426752       -0.6976427151
 O          2.5099469236        2.1878951765        3.1743413631
 H          2.4023434324        2.6947712895        2.3311812232
 H          2.8066734669        2.8250304649        3.8252188647
 O         -3.6424448665        2.1624713596        0.5216132361
 H         -2.9015666509        1.5814382905        0.2359602878
 H         -3.4048413872        2.4365093288        1.4188213448
 O          0.6422978431       -1.4833865611        3.1887935884
 H          0.9860963697       -2.1774188983        2.5981566942
 H          1.4418980605       -1.1373969576        3.6461186294
 O          4.4308181050       -2.2985623459        2.3380498999
 H          4.4560787202       -2.5471792186        1.4035891163
 H          4.2191010196       -3.0905706166        2.8356932143
 O          2.1639374711        3.6592385278        0.9963546277
 H          2.3718911202        3.3963774096        0.0895596836
 H          1.1929410138        3.6972188862        1.0429418291
 O         -3.5615513549       -0.0177369023        3.0228873411
 H         -4.3208695530       -0.0408007130        2.4245929058
 H         -2.9039950103       -0.6155228435        2.6286131029
 O          2.3630099670        2.7927555879       -1.7135067824
 H          2.7039926742        2.2662993809       -2.4458662980
 H          1.7213211634        3.4157429161       -2.1125651091
 O         -1.8315078529        3.7138153334       -1.0219789278
 H         -2.7239965073        3.4958717899       -0.7195357912
 H         -1.2641244668        3.5511548382       -0.2335567905
 O         -0.4964177073        3.0656272359        1.2080322124
 H         -0.1379231253        2.1585368494        1.2982157260
 H         -1.1896605724        3.0933190275        1.8928913825
 O         -1.0882896229        1.8816291822       -2.7800603216
 H         -1.4312124089        2.6010561097       -2.1933924655
 H         -1.8579125985        1.5905347349       -3.3123775891
 O         -2.3535274023        2.3928263119        3.0769461527
 H         -1.5726136701        2.2363322268        3.6370554706
 H         -2.8449447801        1.5462614602        3.1461175400
 O          0.8284385352       -4.7657323572       -0.9661174567
 H          1.0070161494       -4.4619535947       -0.0616644941
 H         -0.1206553428       -4.6446996035       -1.1103024467
 O          0.3384905487        0.5075568194        1.3868532347
 H          0.3649635554       -0.1521042207        2.1093301457
 H          1.2004335765        0.4310361101        0.9066291667
 O          3.0888619739        0.4728507436       -3.3024350715
 H          3.4082430381        0.2554132496       -4.1784806423
 H          3.7716094234        0.1517653508       -2.6727448070
 O         -1.7906720816       -1.7455889241        1.7992571635
 H         -1.2348982955       -1.5411245379        1.0263931793
 H         -1.1725408159       -1.8714291253        2.5285139951
 O         -0.1430089322       -1.7424816047       -0.4111808794
 H          0.0789162113       -1.1479737855       -1.1471723080
 H         -0.7090631126       -2.4588491734       -0.7740324177
 O         -3.9894717276       -2.3597975650        0.2158294930
 H         -4.6217226388       -1.6839592518        0.5037104824
 H         -3.2571060883       -2.2949379409        0.8513989068
 O         -0.0059957774        1.5353851534        4.2319374402
 H         -0.0394243504        0.5795107160        4.3117399139
 H          0.8443814588        1.7444592560        3.8091476540
 O          0.4217160159        4.2421473133       -2.9032591273
 H         -0.1892115127        4.6337870087       -2.2706644326
 H         -0.0313935302        3.4561820495       -3.2414067774
 O          0.5480429585       -0.3083024072       -2.6615048391
 H          1.4456689247       -0.0185912547       -2.9102951740
 H          0.0001777977        0.4958315937       -2.7338163193
 O         -1.6287848757        0.6392313866       -0.3484694412
 H         -1.2090794586        1.1013366054       -1.0892501019
 H         -0.9305709253        0.5008476831        0.3347828829
 O         -3.2338913434        0.8286487642       -4.0112597760
 H         -3.0772599784        0.2050990099       -4.7228373928
 H         -3.5230693704        0.2990744238       -3.2466529538
 O         -1.5689749919       -2.0298885518       -3.4924500805
 H         -0.7661137773       -1.4985945416       -3.4061000838
 H         -2.2624508634       -1.5353359760       -3.0037564773
 O         -3.2975481873       -0.8110944418       -1.8562901269
 H         -2.7124583606       -0.2833715455       -1.2764841643
 H         -3.7091606008       -1.4507227472       -1.2415945412
 O         -1.7161898497       -3.6717210915       -1.3867767886
 H         -1.7337453186       -3.2781913845       -2.2883747983
 H         -2.5949345422       -3.5612016545       -1.0080133900
 O         -5.3013482555        0.0705989841        0.8333694932
 H         -6.2164658944        0.3348539641        0.7459511967
 H         -4.7584043126        0.8694570643        0.6250524564
 O          1.5847022801       -3.0452695666        1.1202250924
 H          0.9853021598       -2.4999047014        0.5619952304
 H          2.4756770110       -2.8390206447        0.8196629154
 O          2.9559599436       -0.4518805181        3.9744992594
 H          2.9151607930        0.4621633567        3.6520714465
 H          3.6024915319       -0.9200756409        3.4307115443
 O          2.1798215278       -2.8306713346       -2.1933940161
 H          1.5448582813       -2.1505395496       -2.4357341194
 H          1.6592838889       -3.6077914246       -1.8748224929
 O          2.5263572493        0.6283108367       -0.0794044913
 H          3.0660539595        0.0755352570       -0.6575019290
 H          2.3824680323        1.4542362358       -0.5756390531
 O          4.8485089033       -0.3006921465       -1.4469846561
 H          5.1378405941        0.1981513116       -0.6572712757
 H          4.7861578940       -1.2241661891       -1.1600622671
 O          5.0460102560        0.5391182007        1.1229806819
 H          4.1275609520        0.8483297017        1.1213665225
 H          5.0717390134       -0.2540869402        1.6653225128
