  120
       -203.64402528
 O         -0.6833126737        0.1943840058        0.8027980672
 H         -0.6622147617        1.1444714109        0.5803353314
 H          0.1883214875        0.0246840767        1.1979921376
 O          5.1340848057       -0.3688746690        1.8446707887
 H          6.0757961768       -0.4664601138        1.9888388635
 H          5.0119313705       -0.4523615716        0.8648954280
 O         -0.3950721921        2.8655434824        0.6835996394
 H         -0.4649004523        3.4804813287       -0.0741293532
 H          0.4112610852        3.1052903204        1.1753913568
 O         -1.1708146747       -5.0296343435        1.9925106234
 H         -0.6557952690       -4.2122283537        1.8511800440
 H         -1.7048548551       -5.1269469436        1.1980097062
 O         -2.4306238889        2.8078562808        2.4174005942
 H         -1.6680867268        2.8601574052        1.7985856351
 H         -2.4532212888        1.8882726593        2.7406505073
 O         -1.7829408222       -3.8863140607        4.3955748801
 H         -1.5850804107       -4.4668247757        3.6335499661
 H         -0.9681975436       -3.4026865852        4.5883260051
 O         -2.2735066619        0.1508727142        2.9588975523
 H         -1.8268859927        0.0095332651        2.0940018428
 H         -2.8091151748       -0.6409736705        3.1322044996
 O         -3.5534350670       -2.2471582558        3.4038911631
 H         -4.3782652428       -2.3691822588        3.8718047497
 H         -2.8941002149       -2.8655826338        3.8292670431
 O          0.2001890819        1.5530509031       -1.7380384645
 H          0.6404324748        0.8285580671       -1.2629833805
 H          0.8276237030        2.2896832840       -1.7317102174
 O          0.4473983561       -2.0639196881        4.4640777054
 H          1.3969104256       -2.1324293158        4.3123039457
 H          0.2638441642       -1.1260211213        4.6791877471
 O          1.5853591929        0.3061359528        2.3562996314
 H          2.0652020113       -0.5125719477        2.6204237150
 H          2.2589312700        0.9967388116        2.3136870432
 O         -0.2104445749        3.3170101003        4.1596302926
 H         -1.0817455813        3.3949932116        3.7423038821
 H         -0.1430256194        2.3845841597        4.4474405884
 O         -0.2180754536       -2.4953047216        1.8876721596
 H         -0.1316045879       -2.2613423666        2.8309429706
 H         -1.0477894411       -2.1175964106        1.5285482396
 O          1.6032076467        3.7035816897        2.2776304811
 H          0.9841290154        3.6536079675        3.0507155406
 H          2.3987290078        3.2246140062        2.5264272632
 O         -2.8854163695       -3.5657477380       -3.2365398437
 H         -3.6011587779       -3.9329769671       -3.7540138428
 H         -3.1364311008       -2.6255038231       -3.0300668853
 O         -4.4925595430       -0.4467776040       -0.3243656836
 H         -3.8276207154       -0.9688789254        0.1656005795
 H         -4.3351797481        0.4773606243       -0.0815751070
 O         -0.7195606261        4.5878901749       -1.4077786465
 H         -0.1678224023        4.4206211880       -2.1897475049
 H         -1.5350205447        4.0872948836       -1.6009856093
 O          1.4856387038        5.5052520442        0.1387151548
 H          1.5108088797        5.0540614024        0.9975108456
 H          0.5604079280        5.5595929567       -0.1326771860
 O          2.1010678127       -2.5693916650        0.6810868713
 H          1.2302130941       -2.5982687197        1.1359412119
 H          2.1181678090       -1.6760637356        0.2715461776
 O          1.7178414704       -3.1210762638       -3.7268329238
 H          0.8240432207       -2.9896418068       -4.1615999886
 H          2.1591905786       -3.8100777647       -4.2223211304
 O          0.5159486055       -3.4899225945       -1.3092058701
 H          1.1944296681       -3.3312430335       -0.6245993521
 H          0.9835748924       -3.4720514597       -2.1619768935
 O         -0.0839861150        0.5977008697        4.4131247241
 H         -0.9692266448        0.4413570625        4.0180860122
 H          0.5322368970        0.5720431535        3.6477111713
 O         -2.7162342568        1.1059153086       -4.1631307963
 H         -3.1641458983        0.3275459465       -3.7847362264
 H         -2.6717056195        1.7380953806       -3.4196979833
 O         -3.2984936889       -1.0575760772       -2.6009083456
 H         -3.9002987306       -0.8429245223       -1.8506846600
 H         -2.4021962091       -1.0468597911       -2.1939398978
 O          2.1509796432        3.6110626567       -1.5781125394
 H          1.9617734086        4.3743112214       -0.9773698941
 H          2.1596357134        3.9509197206       -2.4747620431
 O          3.5975419308        1.9353549307       -0.1372869157
 H          3.1396301161        2.5676559973       -0.7284108901
 H          3.7200913920        2.3765313236        0.7066070039
 O         -3.9650364735        2.2288333050        0.3156002825
 H         -3.4745747431        2.4913406893        1.1335983326
 H         -4.7375385789        2.7908767106        0.2642606435
 O         -2.0682201826       -4.1801686496       -0.6610163667
 H         -1.1141024621       -4.0685732400       -0.8161802018
 H         -2.4607148128       -4.0908864489       -1.5452642510
 O         -0.6477925123       -2.7600338955       -4.7417670628
 H         -0.6721464579       -1.7905373772       -4.6049648653
 H         -1.3644200418       -3.1253463210       -4.1951372615
 O         -2.3158151647        2.4902074576       -1.8759837937
 H         -2.8776617993        2.2822660680       -1.1111688016
 H         -1.4586266419        2.0289386194       -1.7443978745
 O         -2.6386045989       -2.0497442734        0.8518903791
 H         -2.5294248811       -2.8461341152        0.2821787160
 H         -3.1212512817       -2.3200040759        1.6485983919
 O          3.0009292713       -0.8330745926       -2.8344919568
 H          2.6724642154       -0.0816445889       -3.3643012816
 H          2.5718613353       -1.6321427743       -3.1876018303
 O         -0.8485409226       -1.1535662747       -1.5316601011
 H         -0.3997651115       -2.0145684455       -1.4205486693
 H         -0.8319857428       -0.7110210269       -0.6600254243
 O          3.0554976465       -1.8083578822        3.0409987353
 H          2.8118614427       -2.3136632716        2.2315132730
 H          3.9172643773       -1.4235013780        2.8288916034
 O          1.7698931850        1.1915899919       -4.2635755872
 H          0.9113660182        0.6912669702       -4.1355948293
 H          1.9669644644        1.1472988990       -5.1994106647
 O          5.0116485932       -0.2990523389       -0.8053570936
 H          4.4949074311       -0.7396304961       -1.4927993822
 H          4.6762902624        0.6119172769       -0.7804830417
 O          3.8740447975        1.8757318348        2.7034865744
 H          4.3688319396        1.0908018308        2.3753181962
 H          4.1341481533        1.9940534342        3.6182162240
 O          0.3891794943        3.5919814382       -3.8340956798
 H          0.9152861160        2.7732212333       -3.9053554334
 H         -0.4975164428        3.3455969793       -4.1075792617
 O         -0.4210312640       -0.1740056298       -4.0032092773
 H         -1.2383645121        0.3601405639       -4.1709770129
 H         -0.4639353904       -0.4038987824       -3.0505811347
 O          1.9207655287       -0.1815188329       -0.5076323032
 H          2.5052492294        0.5394485453       -0.2141309071
 H          2.2806810266       -0.4684646760       -1.3770306686
