  131
       -218.46670480
 H          0.7167321570       -0.0794887217       -1.2285693742
 C          1.4256467179        0.5398489765       -0.6767825610
 H          2.3248406118        0.6801217558       -1.2809134966
 C          1.7698121378       -0.1183385810        0.6603110982
 H          2.3749914961        0.5646158813        1.2588373182
 H          2.3405763518       -1.0232752910        0.4766225361
 N          0.5985937316       -0.4827456026        1.4424124991
 H          0.0430170342        0.3404749487        1.6389152045
 H          0.0174686645       -1.1200828578        0.9014777189
 O          0.7879282239        1.7932786485       -0.4722388018
 H          1.4186410417        2.3593272032        0.0444682386
 O          0.0480719354        3.5758978884       -2.3474664071
 H          0.4035504028        4.3715128459       -1.9344149776
 H          0.2995579454        2.8592945558       -1.7294937115
 O          2.2714672925       -4.4169043464       -2.3316233986
 H          2.0314701708       -4.3578528970       -1.3848839451
 H          2.9812486204       -5.0575212703       -2.3926526293
 O         -4.1232896416        3.7019256813        1.4994869241
 H         -4.7683000206        4.3911461107        1.6589847262
 H         -3.2870445458        4.1493350481        1.2737454783
 O         -3.3959912354        0.6613034859       -4.3225186118
 H         -2.4385368337        0.8313645717       -4.2325997882
 H         -3.5463805116       -0.1577340473       -3.8223293024
 O          3.1886945779       -1.8043010664       -2.5203913069
 H          2.4874271426       -1.3008805219       -2.9907266092
 H          2.8885700876       -2.7281865236       -2.5881143413
 O          0.1822419846       -3.3128095943       -3.9559347359
 H         -0.5788129645       -3.3851618203       -3.3583664938
 H          0.9045462272       -3.7825159023       -3.5197396625
 O         -5.3239574150       -2.2027716773       -0.9245404371
 H         -5.8421156778       -2.8167275404       -1.4438438170
 H         -4.5948728978       -1.8708283226       -1.5243246356
 O         -2.5313327175        4.4052999466       -2.0568524954
 H         -3.1922766523        3.8177380766       -2.4539336211
 H         -1.6569934896        4.0715076938       -2.3328646351
 O          1.2044895599       -1.7813382100        3.6433304656
 H          1.0102059166       -1.2981645091        2.7778958765
 H          0.4524284037       -1.5739400264        4.2047463942
 O          0.9478861722       -4.3305471174        2.7607362702
 H         -0.0148778834       -4.3524440655        2.7240209720
 H          1.1695797174       -3.4645948865        3.1639976201
 O          1.1558130894       -0.7670598056       -3.8545120479
 H          0.7224438239       -1.6206122997       -4.0464617470
 H          0.4517954105       -0.1044190376       -3.7849633334
 O         -1.5064115043       -0.9102606002        3.9007585404
 H         -1.6758557033       -0.7493035590        2.9369954601
 H         -2.2904048129       -0.5850830647        4.3483870764
 O          3.4761827443       -0.2325414724        3.8398626157
 H          2.7652244608       -0.8967753612        3.8637915397
 H          3.0348946947        0.6200893631        3.6965679719
 O          0.8815483821        5.1980930936       -0.1166754370
 H          1.3189677700        6.0450395686       -0.0301649811
 H          1.4818368726        4.5373834924        0.2826139171
 O         -1.8335404453        4.7594597395        0.4734265576
 H         -2.1636776344        4.6887014422       -0.4535572928
 H         -0.9053716993        5.0265842449        0.3791555651
 O         -2.3039937670       -0.5061712502        1.4166892155
 H         -2.7507571314        0.2926524615        1.7810200541
 H         -2.9857301681       -1.2062527538        1.3701715387
 O         -6.3305782952        0.1453710223        0.0869994833
 H         -5.6234548508        0.7804841316       -0.1523255915
 H         -6.0780816856       -0.6895814595       -0.3447161574
 O         -0.4239615183        1.7306991924        3.6891999362
 H         -0.6943169499        0.8245973551        3.8951815314
 H         -0.8659367356        1.9581775033        2.8417325567
 O         -4.4571288659        2.6738409210       -3.0544616753
 H         -4.0595376461        1.9036606872       -3.5578206563
 H         -5.1879976506        2.9892421842       -3.5848121854
 O          4.6532018034        1.9103697461        0.2223570325
 H          4.6394436137        1.5381652483       -0.6805764003
 H          4.6905920373        1.1252652521        0.8083325446
 O         -1.3322234499        2.1872653087        1.2043048544
 H         -0.6749548052        1.9341348980        0.5321622277
 H         -1.5302207368        3.1213225760        1.0193599988
 O          4.9681807150       -0.3857255796        1.6331234645
 H          4.5053370959       -0.3969315986        2.5004337671
 H          4.6361560737       -1.1473973123        1.1262285553
 O         -2.0674700508        0.4296699455       -1.0684361858
 H         -1.9032569201        0.0253740973       -0.1922926264
 H         -2.8095097370        1.0440331761       -0.8952538703
 O         -3.3788515709       -1.3984503679       -2.4527196526
 H         -2.8568641829       -0.7348981044       -1.9327045909
 H         -2.8120386163       -2.1891084385       -2.4904609078
 O         -0.5646410622       -2.7898816412        0.1072133246
 H         -0.9963164675       -3.0684598909        0.9376770523
 H          0.3263330726       -3.2002764390        0.1089546037
 O         -4.2394357179       -2.3756713216        1.5853083696
 H         -4.8463694987       -1.8010638960        2.0853702069
 H         -4.6259243220       -2.4486008724        0.6949309966
 O          5.8933622308       -3.0122603423       -1.8733123268
 H          5.2439884569       -2.7233491804       -2.5236243560
 H          6.5060114638       -2.2638860184       -1.7744625198
 O          7.3030508172       -0.6409825173       -1.6683697243
 H          8.1513772203       -0.4800602515       -2.0810998913
 H          7.3454733198       -0.2187709285       -0.7691161402
 O          7.2645957319        0.6318273395        0.6385296094
 H          6.8117654766        1.4604679977        0.4388920342
 H          6.6152537629        0.1296610910        1.1667999073
 O         -4.3048816811        1.8199997884       -0.5093772722
 H         -4.2255011791        2.5281468837        0.1523722941
 H         -4.4609660372        2.2318662387       -1.3799137272
 O          1.8459718080       -3.9713463322        0.2951884928
 H          2.6514779725       -3.4225648734        0.3626487189
 H          1.6266136486       -4.2503357332        1.2154216340
 O          4.0426705232       -2.3880544409       -0.0251695045
 H          3.6648079805       -1.9912803091       -0.8374658330
 H          4.8412150354       -2.8332611116       -0.3650829725
 O         -3.6683677089        1.2212259232        2.8923395830
 H         -4.5248392662        0.7663034994        2.8618885930
 H         -3.7864768837        2.0899365466        2.4867875978
 O         -1.8190567189       -3.5794671202       -2.0430876847
 H         -2.0777920780       -4.4813283716       -1.8549703211
 H         -1.3423253073       -3.2451884739       -1.2349485596
 O          2.1273041151        2.1911082326        3.4042539864
 H          2.3649187441        2.7523041695        4.1426374769
 H          1.1563654550        1.9897684189        3.5132245990
 O          2.4955602786        3.2698397847        0.9348115727
 H          2.3788984637        2.9508018320        1.8518685073
 H          3.3533629486        2.8791179132        0.6329636621
 O          4.7985872564        0.5018013465       -2.1000524179
 H          4.2298923876       -0.2405742698       -2.3394780511
 H          5.6991474632        0.1427465191       -2.0660240791
 O         -5.8864034519       -0.4106103772        2.5788213152
 H         -6.1181589319       -0.1561183820        1.6356643958
 H         -6.7131094134       -0.4613877176        3.0570047153
 O         -1.7790826139       -3.4088948199        2.4953092988
 H         -2.7038812247       -3.2784349827        2.2396181053
 H         -1.5812760069       -2.6990575824        3.1258438822
 O         -0.8690213538        1.1097973601       -3.4301640169
 H         -0.5049742684        2.0010805244       -3.3931390296
 H         -1.1676194025        0.8986634858       -2.5257066496
