  116
       -193.00503882
 H          1.4447960703        0.5303883545        1.2565701129
 C          1.9092600461        0.2088172658        0.3215580489
 H          2.5476914927        1.0054838095       -0.0590576501
 C          0.8243653205       -0.1161200069       -0.7034885468
 H          1.2972382168       -0.4853429698       -1.6117882856
 H          0.2906552791        0.8057965153       -0.9220182208
 N         -0.1449862904       -1.1095625252       -0.2654972548
 H          0.3249315904       -1.9892693500       -0.0752091192
 H         -0.5906062501       -0.8076514920        0.5931173555
 O          2.7625094849       -0.8944619175        0.5820689534
 H          2.2166544437       -1.6205804680        0.9501069754
 O          2.6821488829        2.1792202223        3.3996539123
 H          2.7699514334        2.2749357466        4.3480040523
 H          3.1857185512        1.3602560031        3.1661888440
 O          3.3325046025       -1.3612696209       -3.0882897496
 H          3.1633857404       -2.0163405758       -2.3907894347
 H          2.5968866462       -1.4389853055       -3.7022998492
 O         -1.6841369433        1.3982194092       -2.1247024483
 H         -0.9589273140        1.1323906789       -2.7340212102
 H         -1.6055148494        2.3509079104       -1.9590475380
 O         -2.2624549533        3.1019544042        2.9663250937
 H         -1.3710800843        2.7432526647        2.7485151201
 H         -2.1345399998        3.7483720819        3.6606346403
 O         -3.4156247859       -3.4620415307       -0.1754302880
 H         -2.9159540615       -3.1028971433       -0.9331366504
 H         -4.0523757144       -2.7712566501        0.0574351343
 O          3.7195813820       -2.8505256567        2.9632548812
 H          3.9589454759       -1.9258153694        3.1286471705
 H          2.7536760290       -2.8463971703        2.8325804644
 O          5.2569102664       -1.3700218281       -0.5004576088
 H          5.1999249746       -2.2914208452       -0.2036433513
 H          4.3398165511       -1.0591542745       -0.4536252825
 O         -0.0799811222       -4.1961909046       -0.5845113437
 H         -0.7634927927       -3.9869661505       -1.2280406041
 H         -0.4994465340       -4.0875116987        0.2825980472
 O          2.9935857828        3.9126782891        1.1900054234
 H          3.7120308898        3.4642294951        0.7033370543
 H          2.9451171519        3.4437385584        2.0351672487
 O          4.4198792604       -3.7541109537        0.5805417724
 H          4.1873811841       -3.4166580490        1.4854877724
 H          4.7165554399       -4.6559715866        0.7000964447
 O          1.1498266519       -2.4639389760        2.1474789401
 H          0.8552605651       -1.6972753346        2.6924131712
 H          0.3642314827       -3.0221135896        2.0615379708
 O         -1.4890545558       -3.3879011060        1.6972405376
 H         -2.2408391908       -3.5690543360        1.0914326126
 H         -1.7847856552       -2.6047168844        2.1863895887
 O         -6.0685347862        0.6292357398        1.9965994022
 H         -6.9364073563        0.6376621395        2.3987904445
 H         -6.0855681059        1.3042256514        1.2645903525
 O         -2.6592818358        0.5037318089        0.2335777059
 H         -2.1763766146        0.6097464478       -0.6051550881
 H         -3.0075096076        1.4016093320        0.4193019261
 O         -1.8514041924       -2.2007102668       -2.0379105377
 H         -2.4500567272       -1.5786748255       -2.4899213954
 H         -1.3169682914       -1.6738615226       -1.3830312782
 O          0.5258173965       -2.1668738402       -3.3680542385
 H          1.0812390500       -2.6285278847       -2.7282185565
 H         -0.3892654296       -2.3123474269       -3.0601701185
 O          6.3103124599        0.2946847375        1.2312893245
 H          5.9849597250       -0.3679650835        0.5617585365
 H          7.2659377332        0.2701560694        1.2010964313
 O          0.8436164953        3.2165790992       -0.1686290288
 H          1.1833548156        2.9124507316       -1.0401796905
 H          1.6250400660        3.6251886352        0.2806208106
 O          4.0718091149        1.0890923639       -2.3947735129
 H          3.8201773296        0.1515911423       -2.5732046750
 H          4.7730492324        1.2891636261       -3.0155865937
 O         -1.4424609780        4.0013263817       -1.1856701485
 H         -0.5870104725        3.7883104836       -0.7336731908
 H         -1.2771138886        4.7755902629       -1.7233685506
 O         -5.8119227436        0.1350090818       -1.8610415579
 H         -5.4840375116       -0.3977447911       -1.0848508299
 H         -6.6264102289       -0.2762446709       -2.1497158315
 O         -4.8143209184       -1.0640845834        0.2440036830
 H         -5.2991413503       -0.6946449060        1.0009937045
 H         -3.9667979243       -0.5619037249        0.2245823116
 O         -5.9908415188        2.2691038787       -0.0539123382
 H         -5.9192982784        1.6745841379       -0.8191798261
 H         -5.1185392096        2.6814704255        0.0574805184
 O          0.1199969897       -0.3605136980        3.4148596057
 H         -0.8162674509       -0.6151134616        3.2804198404
 H          0.1758597424        0.5455309774        3.0804581880
 O         -2.3605227991       -0.8918535946        2.5825618809
 H         -2.4081373633       -0.4344036622        1.7256802748
 H         -2.9617095932       -0.3784529165        3.1654566811
 O          4.0732800712       -0.0281145585        2.7686729690
 H          4.9678463525        0.1849731930        2.4599179014
 H          3.6049973507       -0.3169894877        1.9558705642
 O          2.3664780798       -3.1962025035       -1.2555939532
 H          3.0759346603       -3.4337948073       -0.6378314352
 H          1.5779944189       -3.6869594128       -0.9637778234
 O          4.8257290095        2.3141600558       -0.0044038060
 H          4.5831815962        1.8709227966       -0.8317103934
 H          5.3804911133        1.6899831149        0.4882558016
 O         -3.4538172994       -0.2831557254       -3.1978652747
 H         -4.3514456245       -0.1487503228       -2.8488772450
 H         -2.9131885082        0.4289590651       -2.8004320077
 O         -3.9185734749        0.9298029606        3.7329789261
 H         -3.4266729756        1.7232338813        3.4726571684
 H         -4.7025291242        0.8826713150        3.1609758566
 O          0.1703133641        2.2323134543        2.2833922378
 H          1.0229969652        2.3760878888        2.7326256945
 H          0.3141135590        2.5209941425        1.3608226476
 O         -2.0531076090        0.1438703803       -5.5190947058
 H         -2.6003543280        0.6493775704       -6.1196208216
 H         -2.6289919321       -0.1423820710       -4.7862645057
 O          0.1115563789        0.4863879398       -3.8911305539
 H          0.3271797015       -0.4486206326       -3.7026822972
 H         -0.5174478814        0.4435174303       -4.6319705743
 O          1.6717815026        2.4266157455       -2.5912116619
 H          1.1636712164        1.8031363861       -3.1308846949
 H          2.5608840782        2.0393360219       -2.5166619683
 O         -3.4074937761        3.0645307327        0.4949311595
 H         -2.7803250965        3.4909614554       -0.1132535398
 H         -3.0813352650        3.2325173275        1.3957199556
