  222
       -371.48174912
 H          1.4664359544       -2.2245609645       -1.0714297653
 C          0.7122721365       -1.9312458914       -0.3409530142
 H         -0.2600563907       -2.2999608972       -0.6695347046
 C          0.6593047748       -0.4153007995       -0.2064004875
 H          0.1077137625       -0.1590289162        0.6949402358
 H          0.1529844405        0.0123302081       -1.0645730981
 O          1.0923971268       -2.5478713553        0.8677864389
 H          0.4122037508       -2.3989620463        1.5528678299
 N          2.0134963417        0.1464831494       -0.1289209212
 H          2.5009935003       -0.1987347235        0.7246007183
 H          1.9681548398        1.1946837641       -0.1468303134
 H          2.5440821387       -0.1430187064       -0.9829202343
 O          0.5178361524        3.5987785772        4.0538880706
 H         -0.3236228751        4.0058537882        3.8260904259
 H          1.0911599004        3.7100852380        3.2786398983
 O          4.1135281363       -3.5524302235        2.0721496407
 H          3.4334033789       -4.1827768078        1.7854783842
 H          4.9070636637       -3.7338692742        1.5473557852
 O         -4.0942379835        2.4774610354       -2.5259749082
 H         -3.5695175684        3.2901167909       -2.4390579086
 H         -5.0326331405        2.7390359488       -2.3385718839
 O         -1.9966379450       -2.1244071835        4.6707925724
 H         -1.2871130382       -1.7813030534        5.2894474314
 H         -2.6836608248       -2.4931014800        5.2248117183
 O         -0.9327986803        2.7591729267       -0.5294126727
 H         -1.3648753032        2.1112778339       -1.1171905206
 H         -0.9864071748        2.3541719953        0.3598995640
 O         -0.1069438932       -5.6015874879       -0.5989431418
 H          0.6192290947       -5.5442697427        0.0474655679
 H         -0.8419536648       -5.0750629193       -0.2438535184
 O         -0.8299253598        1.7263382671        1.8994509206
 H          0.0969058709        1.6619914536        2.2167319718
 H         -1.3335331634        0.9663193568        2.2240151015
 O          3.2786065304        3.2870801756       -2.6607379528
 H          2.6701945967        3.0627898032       -1.9237385731
 H          4.0957164032        3.6071977838       -2.2491151887
 O         -0.1283285503       -1.2169109239        6.2407441597
 H          0.6531352125       -1.7017274347        5.9259921354
 H         -0.0358596591       -0.3031994162        5.9209319630
 O         -2.9007980200        1.9270593934        4.3860729548
 H         -2.7054183662        2.7488082681        3.8982369714
 H         -3.8213781833        1.9957044927        4.6990919535
 O          1.8090604413        4.3082202431        1.6268450911
 H          1.0206047061        4.8020257638        1.2951798522
 H          2.5846121098        4.8578947129        1.4847486746
 O          3.2325993085        0.4086839174        4.5470643951
 H          3.4592464667       -0.0667065473        5.3463259128
 H          4.0592076510        0.8581731309        4.2379121885
 O          1.6987572281        2.7640238751       -0.5494134711
 H          1.8464482158        3.2885615432        0.2669318656
 H          0.7250066695        2.7904985615       -0.6932649683
 O         -0.4836321954        5.2223593524        0.6796382525
 H         -1.0576695857        5.0951689990        1.4482955137
 H         -0.7212751739        4.5119846047        0.0612318714
 O         -2.1583914687        0.7437055604       -1.8101080616
 H         -2.9947133393        1.1961347394       -2.0242486950
 H         -2.3199545202        0.1484514440       -1.0500626759
 O          3.7238514743       -4.0773356068       -0.9781670085
 H          3.0136625142       -4.5288753093       -0.5094555720
 H          4.5480095786       -4.4468505971       -0.6309671406
 O          7.8058653848       -0.3724599805        0.1126618465
 H          8.7050762150       -0.1449721687       -0.1237892058
 H          7.5553418760       -1.1490610388       -0.4258045126
 O         -0.6383899410        3.1080558682       -3.4016704067
 H         -1.0544857853        2.5859898547       -4.1161331142
 H         -0.0533480947        2.4578344913       -2.9605903179
 O         -2.4371828807        4.6287534513       -2.1602287997
 H         -2.3007128019        5.5163487750       -2.4898568456
 H         -1.6891605622        4.0828468712       -2.4987730946
 O         -1.9351518862       -3.3410791281       -2.4912158836
 H         -1.9752052099       -3.5110554603       -1.5354578135
 H         -1.2103738796       -3.8978585768       -2.8242921205
 O          3.7736680313        1.1957492462       -4.2485069838
 H          3.6413903661        1.9946680678       -3.6864389592
 H          3.1189113919        1.2868442831       -4.9540576178
 O          0.3957468055       -4.6780981842       -2.9911826604
 H          0.2968773937       -5.0576438132       -2.0765305340
 H          0.5638942045       -5.4190172420       -3.5731256881
 O          6.1559866944       -4.3555553217        0.3572153696
 H          6.8481024906       -4.9094575424        0.7182499265
 H          6.5904782207       -3.6520423579       -0.1640562959
 O         -2.0705619324       -3.7704936707        0.2499193481
 H         -1.6361603252       -3.7103087733        1.1292189542
 H         -3.0230161342       -3.9334564112        0.4527276695
 O         -0.8630391856       -3.4677131822        2.5792246795
 H         -1.2599647793       -2.9516937169        3.3023535341
 H         -0.2499295905       -4.0926033065        2.9963234368
 O         -1.4602684439        1.2617208702       -5.2371978177
 H         -1.3316823373        0.3961350519       -4.8217632236
 H         -2.4242647726        1.3552979556       -5.3252668670
 O          1.7508198234       -2.5434632608        4.7058353042
 H          2.6966860573       -2.3271700510        4.6562003645
 H          1.2806609517       -1.9805810997        4.0400948192
 O          1.4219237401        1.6647288111       -5.5950316492
 H          1.4985115222        2.6403252143       -5.4404795549
 H          0.5166206016        1.5185154764       -5.8911917430
 O         -5.5527852110        2.1693087465        4.8042882890
 H         -5.7691838607        2.1594967547        3.8507986884
 H         -5.9468610045        2.9584527936        5.1761178126
 O         -3.5377641627        4.2263144366        0.3463118680
 H         -3.0959365317        4.4492365847       -0.4895284821
 H         -3.4558976904        3.2399217024        0.4370219174
 O         -4.1809574475        1.5699689602       -4.9892418637
 H         -4.1365114830        1.9250171931       -4.0618952696
 H         -4.6639688305        2.2147673925       -5.5065793941
 O          5.7118187988        3.8105690569       -1.4370123396
 H          5.8086871189        2.8589104626       -1.1790976387
 H          6.4353647360        4.0153706713       -2.0290490837
 O          1.5565942558        4.1349065292       -4.6673149398
 H          0.7121522260        4.0233469603       -4.1946998003
 H          2.2453832341        4.0239099128       -3.9927756543
 O         -5.9989202365        2.0804591792        2.1386268696
 H         -6.6084713762        1.3599101180        1.9124618591
 H         -6.2081599684        2.8415399233        1.5664806486
 O         -4.7940265304       -0.0408200507       -0.7449121181
 H         -5.6462759907        0.2765980967       -1.1140336326
 H         -4.4753182624       -0.7178479872       -1.3718466685
 O         -5.9004885953       -0.4324367616       -4.1043974160
 H         -5.3288225794        0.2227149159       -4.5381551748
 H         -5.2944582006       -1.0605521658       -3.6785094613
 O          1.7318785434        1.4860981258        2.5051601861
 H          2.0624718052        1.3207619362        3.3967254690
 H          2.4750854366        1.8511337666        2.0063397383
 O          3.7146030165       -1.9205278467       -5.1189266708
 H          2.8138394870       -2.0632442623       -4.7832010689
 H          3.7981569342       -0.9800108279       -5.2942020631
 O          7.3373858676       -2.6190416467       -1.4022998154
 H          8.0529613620       -2.9043401904       -1.9720929453
 H          6.5438605645       -2.5640660604       -1.9774449266
 O         -0.2713359165        1.1136691823        4.7859702302
 H         -1.2143991586        1.3293122570        4.8349354592
 H          0.1688427344        1.9723402661        4.6156052114
 O         -2.0629757371        3.9485604795        2.6879258714
 H         -1.6104712633        3.1389219618        2.3498257388
 H         -2.7395533107        4.1551242678        2.0246169890
 O          3.9908237312        2.1373678607        1.0696107907
 H          4.0890557487        3.0998927778        0.9848923886
 H          4.5293810936        1.7323326272        0.3683508262
 O          5.7748780631        1.2491498686       -0.7904278854
 H          5.7914387742        0.7965471839       -1.6696920800
 H          6.4659080900        0.7905139577       -0.2836058999
 O          4.4931768939        4.8398035824        0.7821373238
 H          5.1657408642        5.1703571258        1.3790450965
 H          4.9290145501        4.6708280507       -0.0717342349
 O          3.2511774729       -0.6656468020       -2.3660127139
 H          3.3789885838        0.0667138250       -3.0010183297
 H          2.6050778236       -1.2608744405       -2.7838610506
 O         -4.8991573229       -1.1996532602        1.6458791534
 H         -4.1596132272       -0.8290170384        2.1729786787
 H         -4.7921414759       -0.8113608204        0.7429444107
 O          1.9337303702       -4.9959814520        1.1410279124
 H          1.6690789439       -5.2165152225        2.0494348351
 H          1.6020013579       -4.0720036369        1.0125225729
 O         -6.5590039072        3.1915530647       -2.0341706002
 H         -6.5572819566        3.5528150008       -1.1321882827
 H         -6.9776056608        2.3175689155       -1.9897011174
 O         -7.0973695971        0.5221382046       -1.9488443193
 H         -6.7676803386        0.1981738878       -2.8246727514
 H         -7.6576103564       -0.1754082472       -1.5838773407
 O          1.1544500847       -4.9194863466        3.7634479097
 H          1.1334801856       -5.5465802240        4.4852602926
 H          1.4572411419       -4.0531911262        4.1517908378
 O         -8.2003792101       -1.5026412363       -0.3691013430
 H         -9.1320371722       -1.6940488951       -0.2569669208
 H         -7.9001187575       -1.0541619472        0.4541342851
 O         -6.1533375086        4.2290733307        0.4855758312
 H         -6.4817976232        5.1078730618        0.6737774993
 H         -5.1622030954        4.3076031806        0.4034355946
 O         -2.6765661841       -0.2450140811        2.8634444424
 H         -2.3608755354       -0.9255496311        3.4892915160
 H         -2.8590055889        0.5535142609        3.4079891387
 O          4.6928011456       -1.5534577549       -0.1544619583
 H          4.4773616661       -1.0669708792       -0.9583234694
 H          4.2443943951       -2.4044830044       -0.2477823252
 O          0.9504525121        0.9773605877       -3.0128355962
 H          0.3118460788        0.2706297876       -3.1573399341
 H          1.2649073398        1.2084977435       -3.9082661418
 O         -1.0904902884       -0.9424268876       -3.5040582100
 H         -1.5507803247       -0.3073569737       -2.9008930140
 H         -1.4624620807       -1.8067838894       -3.2558467981
 O          6.0410294070       -1.0103052169        2.1805888419
 H          5.4140247953       -1.1884872243        1.4543911296
 H          6.8701073299       -0.8192751934        1.7285035596
 O          5.3329960460        1.3501570626        3.2943416711
 H          5.6867992887        0.5029544496        2.9576101173
 H          4.8586001538        1.7307398062        2.5309836743
 O          0.4017543609       -0.9189787154        3.0814751321
 H          1.2359451588       -0.6590445713        2.6519327054
 H          0.1608898463       -0.1861753422        3.6784060519
 O          5.1819568960       -2.6708507893       -2.9951416894
 H          4.5305474863       -3.1153463561       -2.4349537217
 H          4.7325992456       -2.5147861069       -3.8528713389
 O          4.5016670577       -2.2028747412        4.3862505571
 H          4.4411103394       -2.8875715337        3.7001097954
 H          5.1885035787       -1.6124757332        4.0578092641
 O         -3.5687697466        1.6897445248        0.9223074430
 H         -4.3196196192        1.7605782418        1.5339146978
 H         -3.8779663216        1.1046612960        0.2109929922
 O         -7.3333072135       -0.3369650274        1.9004428695
 H         -7.7044528205       -0.5893831062        2.7465508768
 H         -6.4022499522       -0.6999518623        1.8823913081
 O         -2.3067846222       -0.9975589238        0.1984227422
 H         -2.2768929247       -1.9655406362        0.2265459133
 H         -2.3703475428       -0.6830428895        1.1100882417
 O         -4.6300468005       -3.7955261046        0.8599848119
 H         -5.2470385140       -3.8106375014        0.1164071885
 H         -4.7340353259       -2.9127121258        1.2644874875
 O          1.3918977774       -2.2066225798       -3.6430670594
 H          1.1557810791       -3.1205114865       -3.4110419874
 H          0.5498004156       -1.7330276383       -3.7327927340
 O          2.9881166228       -0.9586538710        2.1565275268
 H          3.2703067316       -0.5766696167        3.0041111474
 H          3.3757065312       -1.8431349214        2.0755470780
 O          6.0082724323        0.0214884346       -3.1093094210
 H          5.4029313099        0.4697081928       -3.7159847259
 H          5.6974604793       -0.8972717862       -3.0530015692
 O         -4.3375225623       -2.0280451057       -2.4952248420
 H         -3.5286063450       -2.5489595942       -2.6029941177
 H         -5.0059742893       -2.6130452734       -2.0996124884
 O         -6.4045478839       -3.3608930741       -1.2726880468
 H         -7.0262563083       -2.6786677746       -0.9501361728
 H         -6.9140430375       -3.9739814010       -1.8034903029
