  105
       -178.17261022
 O         -1.1360473873        0.2638266160       -1.5667754574
 H         -1.6052795081        1.0672864519       -1.2875173642
 H         -1.0727591768       -0.3190616583       -0.7872176604
 O          2.4650774899        3.0379010983       -1.8022670353
 H          1.9500833613        2.3264862982       -2.2265597982
 H          1.9001399091        3.8251126753       -1.9272124515
 O         -0.5117560818       -4.6135943280        1.8474230089
 H         -0.1158814783       -5.2754843543        2.4135167048
 H          0.1822200218       -3.9432098969        1.6616219645
 O         -2.6280484939       -3.0260799867        2.7306471343
 H         -3.1142428196       -2.6051330600        1.9974692197
 H         -2.0041548179       -3.6495524295        2.3260326926
 O         -1.2839012174        2.8636870615       -3.5344544745
 H         -0.4319666820        2.4018704999       -3.4207646191
 H         -1.7104281894        2.8538365520       -2.6563726252
 O          1.3761904786       -0.0566148369       -0.2055168713
 H          0.7450646621        0.6754929310       -0.0466837948
 H          1.3843182507       -0.5257399993        0.6454944438
 O          1.4001385466       -1.5206832162       -2.4797829363
 H          2.3375004899       -1.4184678079       -2.7077823643
 H          1.2848060984       -1.0190447186       -1.6445790039
 O          0.3742473476        4.7645018943       -2.0290193048
 H         -0.2040857504        4.3960941348       -2.7088417484
 H         -0.1422806834        4.7614693851       -1.2048815376
 O         -1.1003869552       -1.5207849369        0.4679950624
 H         -1.5134600442       -2.1296376233       -0.1760998691
 H         -0.2638508601       -1.9235897799        0.7517081593
 O          3.8189459379        0.7602401547       -0.7371489861
 H          2.8770200449        0.5405297364       -0.5260737220
 H          3.7875596437        1.6736959613       -1.0448600290
 O          4.0962013711       -1.0162239259       -2.6607652132
 H          4.7602190968       -0.7496078681       -3.2953143818
 H          4.0735105842       -0.3176944781       -1.9541378231
 O         -4.0292940084       -0.5523532745       -2.3256636881
 H         -3.5150072960       -1.3139360044       -2.0348913490
 H         -3.4764074861       -0.1106557414       -2.9954302151
 O          0.8218409585        1.2155149830       -2.9932194246
 H          0.1384775925        0.8008929651       -2.3988963144
 H          1.1394016619        0.5029049730       -3.5505620002
 O          4.1289685678       -3.2965791936       -1.0221119287
 H          4.1259977033       -2.8475573398       -0.1656155752
 H          4.2271384302       -2.5908266312       -1.6803145436
 O          3.7208924238       -1.4966389606        1.1365150616
 H          3.9284195737       -0.7424957626        0.5697442838
 H          3.7383336041       -1.1413311972        2.0432005472
 O          2.1245710575        3.1122840195        0.8680080823
 H          2.3672225443        3.1566036257       -0.0772924137
 H          1.2644299937        2.6567867968        0.8887408933
 O         -2.5879813313        0.5887788141        1.4019945278
 H         -3.3731055623        0.7163466855        0.8424474086
 H         -2.2395962780       -0.2939489072        1.1892914513
 O          1.2728276330       -2.8394155466        0.9726069860
 H          2.1359638762       -2.4325179638        1.1559301341
 H          1.3698195050       -3.2889011444        0.0964101494
 O         -1.2365821282        4.7550945159        0.2700990984
 H         -0.6278003211        4.6903756000        1.0575602372
 H         -1.6832054605        5.5973879268        0.3538790068
 O          0.2428059555        2.6578218570        4.1299898109
 H          0.1389270040        3.0450598692        4.9990520693
 H         -0.5303682475        2.0409298084        4.0142938625
 O         -4.0492887288       -2.1097079240        0.5515329053
 H         -3.5278487955       -2.4212097507       -0.2083802225
 H         -4.9187157074       -2.4989858721        0.4648363866
 O         -2.4371556814        0.5659265640       -4.2879082738
 H         -2.0487033879        1.4446392789       -4.0563058534
 H         -2.8311940807        0.6546877035       -5.1550276362
 O          2.8739763942        2.2365053496        3.3151988372
 H          1.9739775597        2.3410905798        3.6679858854
 H          2.8122841539        2.5507252349        2.3940113820
 O         -4.5565923107        1.1466147863       -0.3895174421
 H         -5.4843907018        1.0454384685       -0.1810808720
 H         -4.3624775005        0.4946571035       -1.1156719600
 O         -0.1540528819        1.6700855246        1.1041580077
 H          0.1927964484        1.0933677524        1.8092361931
 H         -1.1149892355        1.5040144729        1.1106757673
 O         -0.9706425625       -5.0868998417       -0.8683228975
 H         -0.0820486774       -4.8813109633       -1.1948535016
 H         -0.9083958237       -5.0528316288        0.0993297997
 O          3.5090214447       -0.2687212813        3.5648885722
 H          4.1010172401       -0.3530719079        4.3112196647
 H          3.3444472040        0.7116562303        3.4481740517
 O          1.5551491211       -3.9727409091       -1.3960800315
 H          1.3640243559       -3.1857044527       -1.9474464321
 H          2.5327618985       -4.0017436189       -1.3436682559
 O         -1.8103937147        1.0359656583        3.9664490485
 H         -2.2212821127        0.9979390347        3.0845610823
 H         -1.5118096600        0.1246291926        4.1305634565
 O         -1.1420777166       -1.8625326011       -3.5914420626
 H         -1.5203096258       -0.9888065705       -3.7758030783
 H         -0.2451110430       -1.7093663103       -3.2601786521
 O         -0.9627018325       -1.5696138607        4.1083672554
 H         -1.6324316963       -2.0654896532        3.5585163398
 H         -0.9281662860       -2.0200174420        4.9515561783
 O          0.4283405632        4.7103627181        2.2867243093
 H          1.2261292113        4.4203735878        1.8115145873
 H          0.2590950360        4.0015463407        2.9334665284
 O         -2.3512350205       -2.8938127287       -1.4747446398
 H         -1.9200404549       -2.5597464920       -2.3017574009
 H         -1.9747292420       -3.7926648778       -1.3419130369
 O         -2.3268900111        2.6430097544       -1.0335952843
 H         -1.9818868290        3.3371426693       -0.4443713645
 H         -3.2092766080        2.3890821792       -0.7312308667
 O          0.9363586519       -0.4045543280        2.4984918408
 H          0.2700199359       -0.8722809144        3.0246874805
 H          1.7613772051       -0.4342439456        2.9982732154
