  461
       -778.77594563
 H         -2.5349930771       -1.2261388965        0.1188893006
 C         -1.9284590508       -0.4633344633        0.6122842467
 H         -2.3648748100       -0.2300197898        1.5817711445
 C         -1.8753382040        0.8031714097       -0.2465479644
 H         -1.5439767720        0.5424852095       -1.2519227749
 H         -1.1637321561        1.5036707912        0.1889075794
 N         -3.1689530792        1.4567307357       -0.3443928818
 H         -3.8413657101        0.7727736827       -0.6638069498
 H         -3.4674118610        1.7618665263        0.5767243061
 O         -0.6332963371       -0.9816626937        0.8571375063
 H         -0.1134815459       -0.8948302387        0.0106075778
 O          6.4064663922       -0.5115323413        0.3030489904
 H          5.7554224050       -1.2177217996        0.5075196319
 H          7.2546635061       -0.9647512847        0.2661173120
 O          3.4645792219        1.3557484515        1.1327750811
 H          3.1173533269        1.9579461668        1.8196742859
 H          4.0267731599        0.7479007108        1.6566690128
 O         -4.1834037114        0.9741658699       -3.5399468529
 H         -3.2542090403        1.3050906748       -3.5177551617
 H         -4.2347891539        0.2214772403       -2.9379061796
 O         -5.2442615658       -5.0209807300       -1.1386668077
 H         -5.6113791233       -4.3213510655       -1.7098367937
 H         -5.0464005368       -4.5582158923       -0.3035664335
 O          0.2071105900       -3.3298029085       -1.4279596567
 H         -0.4641507088       -3.5321019391       -0.7531036956
 H         -0.0121860280       -3.9121497876       -2.1683478848
 O         -1.6943064850       -6.8173793585        2.8310257800
 H         -2.2932031424       -7.4150775122        2.3782570949
 H         -2.2412488128       -6.3048989806        3.4359095275
 O          2.9652109938       -2.7852500878       -2.6921173779
 H          3.2309402556       -2.0795608443       -2.0796140244
 H          2.1145280243       -2.5061146589       -3.0804051064
 O         -1.7174077549       -0.7531027535       -3.2529630227
 H         -2.1127714810       -1.4606602544       -2.7139062482
 H         -0.7963479791       -1.0122880550       -3.4219709967
 O          4.5252255921        0.5949660191        5.3726687998
 H          4.5269453151       -0.2198102684        5.9264227416
 H          4.2076430625        1.3408343355        5.8945237179
 O          2.2528113158       -2.1102662792        4.1941640854
 H          2.3052715123       -2.0492810909        3.2259674192
 H          2.0597458293       -1.2145612151        4.5123867701
 O          0.7015569612        3.7266863388       -2.9422773288
 H          1.1629384606        4.0116263925       -3.7480651360
 H          0.5332482522        2.7790022914       -3.0821824250
 O         -1.0594671186       -0.7774823641        4.2200852436
 H         -1.6818843620       -0.8469602598        4.9620923282
 H         -1.4202435066       -0.0306017748        3.7002080502
 O         -2.3455132836        1.3231268942        3.2814107043
 H         -2.2657995429        2.0543194659        2.6450065223
 H         -2.4048798504        1.7512370070        4.1572708753
 O         -2.1643936152        2.5647247285        5.6822864881
 H         -1.4091725666        3.1162417308        5.3845614498
 H         -1.7950682273        1.9293336557        6.3086101781
 O          0.3364639509        0.4975305529       -6.2307340418
 H         -0.4584265570        0.9071376536       -6.5984386165
 H          0.4096229429       -0.3846496878       -6.6418154464
 O         -1.9001775939        2.2409262858       -3.2755921938
 H         -1.6107571885        2.8476511502       -3.9852888062
 H         -1.2014500130        1.5689849537       -3.2169323322
 O          0.6105613122        3.3164046275        2.2653414231
 H          0.7450027879        2.3536503575        2.1548378891
 H          1.4122973871        3.7340204798        1.9102609963
 O          0.5269694315       -3.2179385940        1.7518755997
 H         -0.0218277596       -2.4710069509        1.4542950011
 H          1.3802101880       -3.1264130986        1.2785576276
 O         -3.8999754029        5.4867219035       -0.4575970262
 H         -3.2223041698        4.8486391575       -0.7727263433
 H         -3.3918889120        6.1000935946        0.1108571535
 O         -4.9167523472       -3.5714033832        1.1246045718
 H         -4.1950274706       -3.1519140603        1.5976765788
 H         -5.5962383701       -2.8946010022        0.9445811574
 O         -1.9336718658        3.8397687493       -1.0471231692
 H         -1.0268835066        4.1789319802       -0.8807864719
 H         -1.8703437568        3.2367477325       -1.8087804461
 O         -4.8310378628        2.1189539848        2.0018682860
 H         -5.1325670713        3.0315064943        1.8411623368
 H         -4.7787285018        1.9607517273        2.9563356324
 O          0.7176343760       -0.6912567851       -1.3547847209
 H          0.4799632274       -1.5686045832       -1.6997225297
 H          1.6915971535       -0.7167852960       -1.2519256771
 O         -2.3497989877       -3.2546497784        2.6673521434
 H         -1.5571303225       -3.2961998868        3.2395082736
 H         -2.8128111433       -2.4270153757        2.9354000774
 O         -3.8936974682        3.5955995815       -6.2727538548
 H         -4.7061620458        3.0777780317       -6.1648438420
 H         -3.7657385852        4.0554279113       -5.4223184155
 O         -2.1157013738        1.6365957766       -6.7576124585
 H         -2.4851562249        0.8200637790       -6.3676972983
 H         -2.8398150365        2.2961932582       -6.7472878157
 O         -5.0500285250       -0.3490637118        1.1302236167
 H         -5.0888000342        0.6008688015        1.3723125347
 H         -5.9291018920       -0.7454332363        1.2879317794
 O          0.5009129280        4.5063354796       -0.2955710166
 H          0.8834654285        5.1241182722       -0.9492953456
 H          0.9131244112        3.6380647524       -0.4462980726
 O          3.1634969579       -1.4626393926       -5.7999122764
 H          3.6024630383       -2.3130512679       -5.5789224408
 H          3.8663650009       -0.8755753731       -6.1551863044
 O          2.9582553091        4.2774811487        1.2712805867
 H          3.8627167946        3.9955632906        1.1088563228
 H          2.9112830493        5.1951457726        0.9466025057
 O          2.5856465696       -1.3435319837        1.6434831485
 H          3.4459954197       -1.1163114205        2.0491549928
 H          2.0240579883       -0.5441915638        1.7443256204
 O          0.9398458110        0.6841398489        2.1510933553
 H          0.1795768175        0.1530532859        1.8425977201
 H          1.0101526754        0.5802276292        3.1197758438
 O          7.4951929845        2.8296318496       -3.4540141060
 H          6.5780843822        2.8350935975       -3.7942035213
 H          7.4790195313        2.3768713418       -2.5920909316
 O          7.7731827388        1.5736564330       -1.0410178608
 H          7.1432675349        0.9855173201       -0.5986172396
 H          8.6188025164        1.0901834434       -1.0996192613
 O         -3.0652693692       -2.6588195840       -1.8778145655
 H         -2.6750051612       -3.1941060436       -1.1539563283
 H         -3.3065576356       -3.2745130433       -2.5996406626
 O          8.2992958129        3.8329411359        0.3190453985
 H          8.1134012238        3.0041334624       -0.1773453390
 H          8.7166592525        3.5544647435        1.1408232967
 O          4.7844636446       -1.7356792635        6.5786881543
 H          4.0096985359       -2.3071812473        6.6835951001
 H          5.4013756757       -2.2143989838        5.9933916542
 O          3.3037196092       -0.8199340444       -0.8244750512
 H          3.0838167775       -1.1611321984        0.0745608632
 H          3.7234435104        0.0324669641       -0.6977301420
 O         -3.9433054289       -1.3164140704        3.3143448550
 H         -3.6260079381       -0.6032087480        3.8802491486
 H         -4.3597625635       -0.8940049767        2.5288236772
 O         -3.5650993850        5.2098900544        3.0634197222
 H         -3.8732574111        4.7724734896        3.8784123874
 H         -2.9475794967        4.5803741343        2.6306988689
 O         -0.1897607408       -3.4421924607        4.2614273733
 H         -0.0792260698       -2.6508278116        4.8148258929
 H          0.2606804162       -3.2338316214        3.4115753675
 O         -3.1506953432       -0.3850590933        5.9302837219
 H         -2.6128563787        0.0140634655        6.6230797635
 H         -3.5237007842       -1.2219575931        6.3069254353
 O         -7.8446397436       -5.5253542573       -0.3255907418
 H         -6.9663166425       -5.4993210157       -0.7469748495
 H         -8.3399314341       -4.7672962172       -0.6670095656
 O          6.4534357503        1.8704061760        1.6202137864
 H          7.3752241663        1.9643069291        1.9126765502
 H          6.3445214140        0.9563340574        1.3100660925
 O          4.9903848923        5.9589422814        2.6754891755
 H          5.2815034538        5.4383811559        1.8933604433
 H          4.5326350510        6.7202661710        2.3126796759
 O         -2.2700934997        7.8799247340       -1.6671453202
 H         -2.2061424496        7.7550668002       -0.7148978298
 H         -1.7380160343        7.1789855891       -2.0764580987
 O         -0.6478023931       -6.7408260629       -0.9718392445
 H         -0.2034019388       -6.3995940132       -0.1697069242
 H         -1.5609677437       -6.9060211128       -0.6914745753
 O          1.9163631691       -5.1931515135        3.8709940883
 H          1.5719218717       -5.6532048737        3.0969285220
 H          1.1796994914       -4.6629555899        4.2114123826
 O          3.7858101149        3.2212661610        6.3322344329
 H          3.5690045489        3.8754249999        5.6276740193
 H          4.3521221842        3.6728962418        6.9559321752
 O          0.4785577473        1.0962819753       -3.5813371385
 H          1.3138915116        0.6729402995       -3.3298136233
 H          0.3706875713        0.9211717952       -4.5323195842
 O          0.0057744635        3.7985048749        4.8103289209
 H          0.2369870011        3.5427249584        3.8897013338
 H          0.1237644896        4.7762570906        4.8192710127
 O          0.4041728465       -5.8723155159        1.4151665046
 H         -0.3185446253       -6.2421537239        1.9540690271
 H          0.3198119758       -4.8960927406        1.4755428348
 O          6.3434427752       -2.9249575671        4.6006922537
 H          5.5649455230       -3.3131473608        4.1513298701
 H          6.6201147326       -2.1549434083        4.0777636594
 O          0.8895341197       -1.9910924660       -7.1141282639
 H          0.6271499704       -2.8446785474       -6.7598287041
 H          1.8081143345       -1.8439318120       -6.8124981583
 O          0.0073756274       -2.0805886549        6.6929532444
 H         -0.6128522982       -2.7109797606        7.0671554206
 H          0.8955463667       -2.4713483763        6.7885420348
 O         -2.4254361361       -3.1567585183       -6.2277433903
 H         -2.5519087922       -2.1806902481       -6.0376636955
 H         -2.6842418294       -3.2896902346       -7.1383523968
 O          1.4497174750        1.9560430544       -0.7165611587
 H          0.9643273265        1.1877526518       -1.0390771508
 H          2.0091361431        1.6630426382        0.0168820061
 O         -4.5792279441        3.7237571131        5.1216198061
 H         -4.8652060656        2.8059715749        4.9592608194
 H         -3.7450255253        3.6012728127        5.5965463611
 O         -3.6160870675       -4.2182038120       -3.9948174912
 H         -4.5659739711       -4.2075447926       -4.1910586119
 H         -3.1881977072       -3.8656816059       -4.7958746325
 O          1.2419184442        2.2559986264        6.5762574107
 H          0.7909625425        2.9020249081        5.9831875102
 H          2.1498978593        2.5863115938        6.6653986864
 O         -6.9265993414       -5.1560974219        2.1350023272
 H         -7.3740021150       -5.3756516760        1.2853637768
 H         -6.1386915783       -4.6439865004        1.8764371713
 O         -8.2369085970       -0.0954655610       -0.6629228573
 H         -8.9059378869        0.1189743111        0.0250319100
 H         -7.5569674440        0.6076898097       -0.5849392348
 O          2.9988615832        0.1304074020       -3.6274760093
 H          3.0772952114       -0.5491521277       -4.3230407097
 H          3.8689706110        0.1835624797       -3.1930154029
 O          3.3189416086        5.3721498592       -3.3496621214
 H          3.2877626168        4.4514114017       -2.9860723310
 H          2.9268084550        5.2955677261       -4.2297645639
 O          3.0632218492        4.9309794970        4.3418825810
 H          3.7567535890        5.3411507293        3.7947071250
 H          2.7518813254        4.1622331111        3.8286458815
 O          5.9391066389       -2.4318265327       -1.8064658838
 H          5.3983248506       -3.2172150545       -1.6257896427
 H          6.2236290022       -2.5062892009       -2.7388438954
 O          2.7024683221        1.8004010196       -5.7582315912
 H          1.9351016450        1.3586065559       -6.1555378283
 H          2.8218494088        1.3607092951       -4.8908038610
 O         -0.0901114543       -4.1130648992       -5.2681600006
 H         -0.9177112453       -3.8221304058       -5.6976829838
 H         -0.3904024662       -4.6117925523       -4.4820868485
 O         -5.0343042375        1.1220830446        4.6293286653
 H         -5.6930797722        0.4518190386        4.3881091757
 H         -4.3852082192        0.6805429194        5.2049341352
 O         -5.5366481073       -3.1837739477        4.4845292227
 H         -5.0992176782       -2.4182842167        4.0553744826
 H         -6.4606384159       -3.1520910893        4.2277997688
 O          4.8341236259       -6.3236228960        1.9378518681
 H          5.5650424266       -5.9093923481        1.4445882823
 H          4.6267926338       -5.6634092538        2.6263518771
 O         -2.3043935658        6.9214296217        1.1788928743
 H         -1.3547150170        6.7560089380        1.3253700713
 H         -2.7375714753        6.6478362084        1.9977183531
 O         -4.9487015125       -0.8643266845       -1.4751853951
 H         -5.0323985427       -0.7115915517       -0.5071905154
 H         -4.2348060262       -1.5318873765       -1.5900538034
 O          2.8889024772       -6.2109338130        0.2453929493
 H          2.0541651407       -6.3728590584        0.7086426853
 H          3.6126868027       -6.3624258911        0.9185462752
 O          9.8213343779       -2.9600730308        1.4507361499
 H         10.5607830202       -3.4979810755        1.1700695960
 H          9.2233705912       -2.8676282390        0.6698785948
 O          4.8979781132       -2.6487200134        0.9386665647
 H          4.0882811264       -2.9017742350        0.4635453765
 H          5.5424790994       -3.3695561536        0.8052147180
 O          1.7960232699        4.2838567924       -5.3867499359
 H          0.8630522482        4.2182136962       -5.6370143656
 H          2.1801458407        3.3992961689       -5.5796085877
 O         -8.2542219401       -3.0165556507        2.9698141677
 H         -9.1334781103       -2.9705451184        2.5756255291
 H         -7.8790327300       -3.9049391249        2.7469190643
 O         -6.7708648283       -0.6500222887        3.4557245099
 H         -7.1866480529        0.1409678404        3.0595863607
 H         -7.4489198772       -1.3307149479        3.5079538314
 O          0.6802751426        6.2982559271        4.3758784966
 H          1.6084243824        6.0127517419        4.4299964875
 H          0.4774092681        6.3640521878        3.4278776953
 O          8.3431125518       -2.4778038464       -0.6870361992
 H          7.3951634032       -2.5056392587       -0.9467518601
 H          8.7927692049       -2.8280254025       -1.4717384216
 O          1.2624238425        0.3141027144        4.7833924956
 H          1.2458282802        0.9684560197        5.5156537118
 H          0.3743197145       -0.1174914739        4.7679624789
 O          7.1244186729        1.3587749345        4.8228422066
 H          6.4158753755        0.9192782735        5.3200053202
 H          6.6590805961        2.1288316214        4.4432909726
 O          4.2735676362       -3.6375727940       -4.8149944784
 H          3.7404794454       -4.4388154248       -5.0087476853
 H          3.8985821740       -3.3220513156       -3.9603554441
 O          2.4552131248       -3.3709708844        6.4660877624
 H          2.4449315156       -2.9929535401        5.5575784154
 H          2.5537687427       -4.3167556746        6.3457645045
 O         -9.0442433780       -3.0896476285       -1.1653471730
 H         -9.4325554814       -2.7002145563       -0.3665367852
 H         -9.3319590513       -2.5376907873       -1.9241434453
 O         -6.5617780992       -2.9472499419       -2.1561094337
 H         -7.4450209516       -2.9620854367       -1.7341303249
 H         -6.1150811407       -2.1320177380       -1.8674915802
 O        -10.3820621371        2.7199643527       -0.2329727841
 H         -9.6514480700        3.3456496445       -0.1401855334
 H        -10.2981058948        2.3221032819       -1.1219746582
 O         -2.0686306866       -4.4526194287        6.0441500572
 H         -2.6918431869       -4.9081302831        5.4544456291
 H         -1.3369656735       -4.1828378709        5.4711972898
 O         -4.6411545789       -6.8844643664        2.1229410953
 H         -4.3454097547       -6.2843794041        2.8370833557
 H         -5.5831076524       -6.6953517261        2.0273849714
 O         -0.8476324886        0.5427925666        7.2206387345
 H         -0.4839226907       -0.3481296377        7.0837820128
 H         -0.0848507708        1.1353538911        7.2742367495
 O         -3.1968352973       -6.4171048101       -0.0797689007
 H         -3.7007399297       -6.6485805060        0.7316815142
 H         -3.8771644390       -6.1391063279       -0.7124977739
 O         -7.1018928653        3.8468563868        3.6215029086
 H         -6.4719518729        3.9228451923        4.3462775291
 H         -6.7227534711        4.3467958351        2.8871793287
 O          4.5546355121       -4.7911788903       -1.6899640494
 H          4.2023842268       -5.3467389793       -0.9871304051
 H          3.7880144959       -4.3471941866       -2.0928866445
 O          3.3007609264        2.8841948182       -2.5045482720
 H          3.9910891681        2.6887448109       -1.8332868264
 H          2.4549746556        2.6473018192       -2.0817339775
 O          8.9682007596        2.1363808511        2.6213615788
 H          8.7506103614        2.0007954998        3.5496969767
 H          9.3271170655        1.2939468003        2.2920465569
 O          1.4294836295        6.5082127016       -1.8400272578
 H          2.1042691575        6.1474973644       -2.4575209835
 H          0.6251502252        6.6462164930       -2.3535483747
 O         -1.0123745707        5.7957604690       -3.0386534719
 H         -0.4476694144        4.9990447215       -2.9680935099
 H         -1.8585552335        5.4670543557       -3.3813415246
 O         -1.1608808715       -5.0906577288       -3.0326431280
 H         -1.0504140380       -5.7533363658       -2.3219210375
 H         -2.1038599017       -5.0217264634       -3.2297835929
 O         -9.3482996358       -1.4538651003       -3.2719005746
 H         -9.9237580126       -0.6853347967       -3.1874992555
 H         -8.4470735923       -1.0833404431       -3.3031887388
 O         -1.9354208140       -4.0412160123        0.1132579676
 H         -2.0215189466       -3.7266677337        1.0310347154
 H         -2.3418465600       -4.9327667438        0.0875646220
 O          6.6154515146       -4.6883532722        0.7261454730
 H          7.1844425876       -4.6228258978        1.5340455115
 H          7.1596509389       -4.9420014659       -0.0272150308
 O         -5.5655109009        4.6909928088        1.4480257066
 H         -5.1079422506        4.9039704598        0.6067431888
 H         -4.9092519119        5.0215355721        2.1122661449
 O         -4.0334492247       -2.6956546956        6.7706030794
 H         -4.7100353837       -2.9368778982        6.1187459561
 H         -3.3052442532       -3.3329594624        6.6470113864
 O         -7.5203531703        2.5397152180       -3.6083194043
 H         -7.2861366674        3.3990559180       -3.2215071722
 H         -7.0444385686        2.4740557702       -4.4536914492
 O         -6.5861408219        1.9462519907       -0.3141008960
 H         -7.1800252549        2.7263914438       -0.2556439444
 H         -5.8309434487        2.2563796368       -0.8433677344
 O          1.7692293221       -5.9739908961       -2.2928513298
 H          0.9099050976       -6.3819649978       -2.1485973063
 H          2.2863305815       -6.2061161449       -1.5106870964
 O          0.3566843467        6.3568736724        1.6123271914
 H          0.4076683132        5.5626165855        1.0368831249
 H          1.0595390560        6.9388900321        1.3164554495
 O          3.1217843479        6.8073552517        0.2631113203
 H          2.4431828098        6.8583203342       -0.4312830328
 H          3.9524282121        6.7728067633       -0.2323129718
 O         -9.7360704246        1.2970913954       -2.4743459781
 H         -9.1202383717        1.8297698887       -2.9975039244
 H         -9.1757095111        0.7291229793       -1.9079753574
 O         -6.2342148331       -3.6697686820       -4.6551393060
 H         -6.4445737318       -3.3567295328       -3.7411045052
 H         -7.0179305785       -4.1179949094       -4.9706592839
 O         -2.9160993878       -0.6913999536       -5.5928879076
 H         -3.8876124201       -0.7515823000       -5.4598510315
 H         -2.4998415906       -0.6444839392       -4.6945436602
 O         -4.6105953262        3.0136350426       -1.9269716071
 H         -3.8817525420        2.7466360811       -1.3163141358
 H         -4.6186364838        2.3069058496       -2.6072050796
 O          2.9464119840        2.3579851282        3.5319027031
 H          3.8860985599        2.5066823981        3.7466379582
 H          2.6358557256        1.6357761319        4.0860496008
 O          5.0592293112        2.1905654430       -0.7237615677
 H          4.4753951223        1.8857827636        0.0128272668
 H          5.5335427440        2.9441271944       -0.3335091358
 O          7.6648559728        5.2289226305       -2.1467031214
 H          7.6757340675        4.4489881947       -2.7365046024
 H          8.1014474376        4.9498372583       -1.3339901556
 O         -6.9317120519       -0.1000016510       -3.2484863018
 H         -7.1448984806        0.8485689289       -3.2957086456
 H         -6.3322245519       -0.2190946114       -2.4992133618
 O          2.5039148291       -3.5709242503        0.0110080369
 H          1.8228731246       -3.4660262240       -0.6798514708
 H          2.6210062222       -4.5332347078        0.1230378004
 O         -7.0363454191       -1.9870395988        0.7565386211
 H         -7.5984316346       -2.2764773781        1.4949091492
 H         -7.5754665605       -1.4401342610        0.1477508215
 O          7.1955512877        0.2302423728       -4.4227225692
 H          6.5368944928        0.1999073016       -3.6868654122
 H          7.5279115026        1.1423126247       -4.4019551708
 O          9.4611738191       -0.9496873951       -3.3891316481
 H          9.3819329264       -1.9099609011       -3.3977160206
 H          8.6545642446       -0.5876843118       -3.8067651452
 O          4.6674146646       -0.2776178114        2.8378717985
 H          4.5221336813        0.0434210833        3.7466090806
 H          5.6016037450       -0.5530154971        2.8019703181
 O          7.9984948372       -4.4235920244        2.9443223084
 H          7.4798254226       -3.9915954229        3.6487587603
 H          8.7012057536       -3.8094383107        2.6880558318
 O         -7.6425491368        1.5843510158        2.2896896078
 H         -7.5397861435        2.3743678458        2.8601045943
 H         -7.0762711717        1.7374427764        1.5152297534
 O        -10.2306522564       -2.0723884709        1.1890107799
 H        -10.1609374273       -1.0995312767        1.2765601210
 H        -11.1663184414       -2.2672140577        1.1398066801
 O          5.4320312900        0.1528598507       -2.4567079727
 H          5.4644724273        0.8904494593       -1.8227744751
 H          5.5557877077       -0.6796555110       -1.9644641963
 O          7.2574199212       -0.7390628084        3.1466835275
 H          7.9827381093       -0.6358458960        2.5136251740
 H          7.3233574853        0.0088282625        3.7794266796
 O         -5.7925851972        1.7613349434       -5.5658460892
 H         -5.1874340664        1.4439364121       -4.8644954084
 H         -6.0058076261        0.9760878783       -6.0760974036
 O         -1.9844366061        3.5205159771        1.6916766954
 H         -1.0262439185        3.6083711437        1.8618304063
 H         -2.0910667734        3.5820822803        0.7270105442
 O         -4.6339120443        6.8207961112       -2.6227562411
 H         -4.4417255680        6.3743350218       -1.7628123974
 H         -3.9962519348        7.5491558719       -2.6178715146
 O         -0.9417739684        3.6643373200       -5.4091050305
 H         -1.2307240569        2.9300812195       -5.9860299108
 H         -1.5581449618        4.3839844123       -5.5606525448
 O         -5.5557680751       -1.0840366646       -5.3527202018
 H         -6.0510590502       -0.7067989545       -4.5968494420
 H         -5.7344513907       -2.0350133387       -5.3102108120
 O         -9.9125947057        0.6125013933        1.2777446334
 H         -9.1986499217        0.9885625661        1.8299444220
 H        -10.2797776596        1.3912352039        0.7917555155
 O          5.5101898406        3.2009642330        3.6502045012
 H          5.5604384507        4.1499644159        3.5128145273
 H          5.7530396222        2.7707919182        2.7968173077
 O          0.7237082799       -1.9087826241       -3.9995006255
 H          0.4259582048       -2.7239490600       -4.4561474047
 H          1.1226242085       -1.3534368979       -4.6764536711
 O          5.2338043787        6.1250008138       -1.4870002672
 H          4.6257921919        5.9351416647       -2.2189188584
 H          6.1364917820        5.9718668710       -1.8408202537
 O          8.7835981960       -3.7164927524       -3.1009674809
 H          8.0963443505       -3.4135126646       -3.7191028553
 H          8.3913845324       -4.5001079624       -2.6841283780
 O          6.6770312335       -2.5938959076       -4.4028368378
 H          6.7376706403       -1.7271763732       -4.8184493716
 H          5.8706169883       -3.0370488663       -4.7332610489
 O         10.0679247924        0.2077184951       -1.1441798494
 H         10.8480683495        0.7179651052       -1.3599596492
 H          9.8435115828       -0.3114878265       -1.9651336002
 O         -3.7318187258       -5.0987441059        3.9418343263
 H         -4.5232544272       -4.5956417330        4.2164822847
 H         -3.2309285700       -4.4512813677        3.3864728518
 O          2.4036932974       -5.5099901844       -4.9305245048
 H          1.5881788263       -5.0944290408       -5.2336487608
 H          2.2447081557       -5.7386281117       -3.9975922534
 O          7.1572675978       -5.6008445749       -1.8897820814
 H          7.1516863708       -6.5358512118       -2.0919744807
 H          6.2290609728       -5.3023978953       -1.9446064026
 O          9.4271252998       -0.2933949345        1.4823920222
 H          9.7624321978       -1.1891609696        1.6545209855
 H          9.6269320288       -0.1282213138        0.5452058989
 O          5.0928798319        0.2762704346       -6.3146959885
 H          5.8529475619        0.3625768183       -5.7175339561
 H          4.5495871390        1.0652076986       -6.1720726146
 O          5.0440764167        2.6540777090       -4.5305782764
 H          4.3427763405        2.6279339618       -3.8524441056
 H          4.7711655031        3.3073142632       -5.1741369817
 O          4.2838403677       -4.0102445044        3.2593365301
 H          3.3736721453       -4.2427855257        3.5181316345
 H          4.2574930208       -3.4129582254        2.4918425899
 O          5.7200737204        4.4931535645        0.5465892194
 H          6.6912312593        4.3512585886        0.5582264860
 H          5.5337679988        5.1029618038       -0.2033729605
 O         -7.9200131804        4.2311350851       -0.0989711751
 H         -7.3448652207        4.5994554804        0.5848352097
 H         -7.6034494279        4.6061531822       -0.9437808950
 O         -6.5746260614        4.8187038449       -2.3624906703
 H         -5.7944220102        4.2843156689       -2.1182486553
 H         -6.2260631960        5.6814486870       -2.6174137200
 O         -3.4636077630        4.7567511305       -3.8256142421
 H         -3.7035942619        4.1021679598       -3.1474253071
 H         -3.9385428371        5.5769275437       -3.5642009526
