  114
       -193.40605583
 O          2.7049105677       -2.6555901837        1.3874828155
 H          3.6149772388       -3.0022263321        1.3986618129
 H          2.1183569936       -3.3773852423        1.1171765523
 O         -0.3687594843       -3.7992720699       -1.7188028176
 H         -1.1028927706       -3.3400679337       -2.1615820691
 H          0.4361456089       -3.5017595513       -2.1709967300
 O         -0.2563664168        4.4961658156        0.7391703651
 H          0.7088181281        4.5067153414        0.6664076142
 H         -0.4487004159        4.2096727493        1.6405333728
 O         -2.2290310118       -2.2954328303       -3.1310804304
 H         -3.1203859128       -2.0923311988       -2.7318849258
 H         -2.4121919223       -2.7353583699       -3.9621509721
 O          0.3498771297       -1.0551503217        4.1822327035
 H         -0.3146384874       -0.3697515299        4.3673929432
 H         -0.0839650957       -1.7445271120        3.6660698674
 O         -0.6919645888       -3.3712750350        2.7968611877
 H         -0.2235462367       -3.7256458866        2.0123667112
 H         -0.4285739064       -3.9173338223        3.5407357398
 O          0.6351234409       -4.4180929364        0.6652334196
 H          0.2182543397       -4.1814994368       -0.1962273067
 H          0.7917928035       -5.3630708815        0.6238715728
 O         -0.6841215744        2.8644940642        3.0458793017
 H         -0.9530708862        2.2524737229        3.7500496337
 H          0.1038015985        2.4459844187        2.6326680142
 O          1.7848453403        1.8394962264       -1.5884774727
 H          0.8641196411        2.1669462793       -1.3979710683
 H          1.7711627379        1.6750424399       -2.5423879774
 O         -1.6005278723        0.8343087381        4.6730910643
 H         -1.7047532075        1.0166034660        5.6079060313
 H         -2.4632821119        0.4673764505        4.3670900249
 O         -0.6476379607        2.6523137446       -1.1571374632
 H         -0.5937659300        3.3563614609       -0.4748530451
 H         -1.1555023391        1.9216777843       -0.7836967573
 O          2.4678223653        3.8192430168        0.2749439089
 H          3.3402223288        4.1972387268        0.1558483651
 H          2.2946040291        3.2538669870       -0.4973368328
 O         -3.8694994087       -0.2704309258        3.8475064648
 H         -4.4693849952        0.2094929008        3.2621093858
 H         -3.7312480729       -1.1454143053        3.4549671833
 O         -4.5545174086       -1.6873867992       -2.1166546736
 H         -4.4360976142       -1.5920769868       -1.1554853733
 H         -4.9642954284       -0.8558816921       -2.3973004894
 O         -4.0120285687       -1.0706511928        0.4634472694
 H         -3.8266883509       -1.7244423961        1.1561579336
 H         -4.5145937586       -0.3387527656        0.8916454300
 O          1.9050327622       -2.4585649668       -2.4518199517
 H          2.7137573165       -2.8284633580       -2.0339733171
 H          2.2365276181       -1.9282069812       -3.1965471735
 O         -3.0600539524        1.8117972324       -2.7537637146
 H         -3.0501532863        2.5253900116       -2.0971786232
 H         -3.9483835466        1.4263666869       -2.7314462589
 O          3.0635538194       -0.4807684060       -0.1767645171
 H          3.7046714353       -0.6223040417       -0.8983430053
 H          2.9803654708       -1.3178599336        0.3135117523
 O         -2.7956988808        2.5250760622        1.4894158588
 H         -2.4215686369        1.7674036460        0.9971678342
 H         -2.0895093256        2.7823486155        2.1277721784
 O         -3.4995494848        3.7512753841       -0.7445208329
 H         -3.1770719058        3.4167576520        0.1260814228
 H         -3.0542505987        4.5875538169       -0.8894498022
 O          2.9993035120       -0.7147072557       -4.2678590498
 H          2.3414964975        0.0081476364       -4.2908136559
 H          3.2439243735       -0.9028138917       -5.1747303115
 O          1.0600860967        1.1652874800       -4.1794080271
 H          0.7815421598        1.8902187834       -4.7400649652
 H          0.2385121457        0.7786880526       -3.7930093450
 O          1.3646928863        1.7256656176        1.7441826459
 H          1.9469007979        2.4167121433        1.3993128757
 H          1.9169503676        1.0616430882        2.2051371649
 O         -5.6601902255        0.8545696383       -2.5061894171
 H         -5.8664177725        1.4152338414       -1.7322058913
 H         -6.3523864539        0.9995764965       -3.1524716885
 O          4.8931994354       -0.4627785840       -2.1944022612
 H          4.9456905169        0.5023719769       -1.9969716027
 H          4.3687341766       -0.5285123526       -3.0062120834
 O         -5.0500557799        1.0796329702        1.6562280660
 H         -4.2813085497        1.6844201517        1.7330266407
 H         -5.6395494026        1.5199995607        1.0282216692
 O         -1.0527127550        0.1308467038       -2.9469538990
 H         -1.7707717464        0.8045067102       -2.8546367654
 H         -1.4908313032       -0.7209570993       -3.1360253058
 O         -5.9647584444        2.6575853439       -0.4832782850
 H         -6.6406897007        3.3360575950       -0.4503070868
 H         -5.1079659695        3.1193188805       -0.6065487764
 O          2.6506510602       -0.2873528861        3.0014537751
 H          1.9116305602       -0.4880146585        3.6062266480
 H          2.7648806107       -1.1020449467        2.4941849510
 O          4.5443993712        1.0865559923        1.3646313487
 H          4.3328937960        0.9658783581        2.2942266862
 H          3.8605011094        0.5673489809        0.8775700737
 O          4.2801274678       -3.1517488713       -1.4926837012
 H          4.7973125634       -2.4119938804       -1.8337931661
 H          4.6492779823       -3.3552934819       -0.6183671017
 O          4.5589637237        2.0160048788       -1.2933399464
 H          4.7684944377        1.9504511817       -0.3522776881
 H          3.5935897075        1.9293081655       -1.3552159556
 O         -3.3088005191       -2.7007726917        2.5585933535
 H         -3.8173434489       -3.4717587590        2.8143557404
 H         -2.3629680434       -2.9413412142        2.6328943304
 O          6.2426436032       -0.8220342187        0.4195474490
 H          5.7796074518       -0.0735467569        0.8485623333
 H          6.1650019092       -0.6764236553       -0.5288773606
 O          5.3263592521       -3.2041669549        1.0489014792
 H          6.0065981403       -3.7106877318        1.4927227222
 H          5.7133514809       -2.3030450955        0.8840407806
 O         -1.8625582930        0.5639856681       -0.0017451630
 H         -1.0180441342        0.0446624033       -0.0656411672
 H         -2.5682735812       -0.0970225201       -0.0584394831
 O          0.3252230256       -0.8585376531       -0.2544381272
 H          1.1123289637       -0.3138280980       -0.1131935507
 H          0.4622157459       -1.2671482763       -1.1160654569
 O         -0.6851564694        3.3491807853       -3.8549605738
 H         -0.5143040255        3.1884064731       -2.9109823526
 H         -1.5214366356        2.9012226524       -4.0059755723
