  211
       -356.64858983
 H         -0.1947256321       -0.9674147185        0.1718559195
 O          0.8366355946        3.1315455046        1.3809552277
 H          0.4723735688        2.8573481552        0.5127240229
 H          0.6434797968        4.0904565305        1.4317396533
 O          0.2357068569       -1.9068517738        0.1225035735
 H          0.8450122289       -2.0717911074        0.9205374666
 H         -0.4185564281       -2.6916845049        0.0782244103
 O          2.3720630148        1.9148680843        4.1030567830
 H          1.9078074379        1.4542518130        3.3754840384
 H          1.6893512138        2.2214490252        4.7439807452
 O         -3.0936749917        1.8366706989        0.8743835675
 H         -3.2201831904        1.4504816304       -0.0109824220
 H         -3.1710006461        2.8038227719        0.7744835204
 O          1.9091269698        0.4806996239       -0.5403833869
 H          2.2068774846       -0.4479646393       -0.5736931981
 H          2.7348301264        0.9956445110       -0.4730800843
 O         -0.7572206526        0.3769514026        0.2578634791
 H         -1.6909756947        0.1881950914        0.1033686730
 H         -0.4845486564        1.0937781187       -0.3423143168
 O          3.1666229521        4.5040974979        3.7824783105
 H          2.3489248052        4.9829852710        3.9516810026
 H          2.9772582476        3.5819957156        4.0365164735
 O         -5.0517174322       -1.7906925103        1.5271536781
 H         -5.4662828039       -1.7048000499        0.6566991797
 H         -5.1099115971       -0.8995421431        1.9362547426
 O          1.7879328128       -4.2878470623        5.0433758908
 H          0.9277861831       -4.1416888142        5.4722460127
 H          2.1593295896       -3.4015872714        4.9078313089
 O          1.0922136162       -2.3394608402       -2.3425320182
 H          1.8420481453       -1.7335837711       -2.4762213614
 H          1.3781193261       -3.0262530815       -1.7136017093
 O         -3.4543222970       -2.8557523351        5.2144408632
 H         -2.5731509054       -3.0890216013        5.5577889323
 H         -3.6418177247       -3.4719324286        4.4955905688
 O         -0.0274090474        5.6647254686       -3.1224022003
 H         -0.4392721205        5.2181189142       -3.8669979691
 H          0.7046853203        5.0780202966       -2.8463324694
 O         -6.5732396281        1.3865652541        0.0848361367
 H         -6.2654010566        0.5498308127       -0.3339825375
 H         -7.5077010042        1.4668472247       -0.1057221321
 O         -0.4985239608        2.9379099687       -3.9736146155
 H         -0.0986205754        2.1453222973       -3.5503009990
 H         -1.2397038271        3.1858342216       -3.3993863712
 O          4.6708313044       -2.8733025902        2.4207852920
 H          4.4835580099       -2.9393221288        3.3586853041
 H          4.4758436216       -1.9485873271        2.1663863660
 O         -2.5682883060       -1.5922669521        0.5329611019
 H         -2.0057315319       -1.4018914998        1.3055219926
 H         -3.4664192190       -1.7017109629        0.8935732222
 O         -1.0227677853       -3.6052001603        2.9160661799
 H         -1.9711133191       -3.8084137510        2.7648518095
 H         -0.4857976515       -4.3311516246        2.5756489560
 O         -4.0849738994        1.3807581412       -3.7804044311
 H         -3.4338233872        1.5415178468       -4.5172611147
 H         -4.6929705190        2.1201463306       -3.7837805569
 O         -1.2733041557       -1.1052555206       -2.3981014997
 H         -1.6204432453       -1.4326023537       -3.2594210895
 H         -0.5115484829       -1.6793813659       -2.1846406775
 O          1.3802564901        0.3224897187        2.1587021518
 H          1.3082396853        0.5671882450        1.2195128316
 H          0.5205903956       -0.0743952218        2.3949074053
 O         -1.1441019363        2.0687325286        2.7362862207
 H         -0.3061436668        2.3663463192        2.3138925690
 H         -1.6910582631        1.6869621251        2.0280231385
 O          0.5673941301        0.7341612118       -2.8864656563
 H         -0.1768769196        0.1163716950       -2.7228105617
 H          1.1060309595        0.7073872711       -2.0684460787
 O         -1.3757079516        1.1783465735        5.2043112470
 H         -2.1759403558        0.6292105061        5.1188280064
 H         -1.2008122693        1.4626083740        4.2812678900
 O         -5.0312731803        0.7532841860        2.3536076576
 H         -4.2603200383        1.1430248034        1.8821003393
 H         -5.7961831872        1.0870590181        1.8677228782
 O         -3.4156785301       -2.9809354993       -1.6832466502
 H         -3.8663218651       -2.4171240276       -2.3336405511
 H         -2.9908492982       -2.3929486580       -1.0349603165
 O          3.5456472281        2.0817452365       -2.7391572689
 H          3.2536664410        1.1531506783       -2.8656135434
 H          4.0828220126        2.0530791594       -1.9353821919
 O          0.4419750349        5.7597431257        1.0202208976
 H         -0.2521597305        5.8793776761        0.3511022408
 H          1.2865647978        5.9088085515        0.5600226854
 O          1.7608738008        3.9446547996       -2.0883417340
 H          2.2068454219        4.5572445062       -1.4773758545
 H          2.4232798492        3.2698373154       -2.3540630575
 O          2.4493914385       -1.6665774617        4.3864764800
 H          3.1931031814       -1.0536193658        4.5091817291
 H          1.6849821263       -1.2489400629        4.8280160204
 O          3.4303391152        3.6657092442        1.3064083582
 H          3.5503015910        4.0417865031        2.2091852839
 H          2.5125284402        3.3055127889        1.3378567131
 O         -4.9147846198        3.2469942291       -1.1047792168
 H         -4.7151299631        3.8716502480       -0.3974775786
 H         -5.5038200121        2.5794727525       -0.7103259154
 O         -0.9687434901       -0.9768759255        2.6681154181
 H         -1.7065135110       -0.6940829246        3.2416259803
 H         -0.8351886391       -1.9248934652        2.8467019630
 O          2.1180932227        2.7826986763       -5.1695890896
 H          2.7515617572        2.7632607750       -4.4417540839
 H          1.2856016555        3.1117909985       -4.8060830242
 O          3.1859452327       -0.5882755856       -2.8573850825
 H          3.9314873738       -0.7138664283       -2.2383869450
 H          3.5025989444       -0.8700396250       -3.7249604262
 O          5.7553417194       -2.3370356763       -3.6028297932
 H          5.3068924936       -2.0311380873       -4.3977779214
 H          5.2159991936       -3.0651293294       -3.2551495829
 O          0.3780535045       -0.6730578740        5.8000473063
 H         -0.2634608360        0.0432114364        5.5457263584
 H          0.6163874607       -0.5017217389        6.7113308434
 O         -5.5012253680       -0.7976280586       -1.0101872557
 H         -4.6056335718       -0.3894944730       -1.0946265797
 H         -5.6866596840       -1.1654643069       -1.8794314268
 O          1.8405262931       -2.5516225865        1.9410953314
 H          1.6122070647       -3.4921837841        2.1374169789
 H          2.0135863549       -2.1212105395        2.8028911120
 O          3.7938979692       -1.1258102075       -5.5378458260
 H          2.9202364438       -0.6576311054       -5.5579407931
 H          4.2952934822       -0.7922134283       -6.2820747987
 O         -2.0159138741       -2.0080210905       -4.7827465523
 H         -1.6937012964       -1.3815514885       -5.4535749934
 H         -1.3662381743       -2.7397288643       -4.7899150059
 O          3.2130913039       -1.9486309612       -0.3527084552
 H          4.1067820765       -1.6080349562       -0.2299181891
 H          2.9066977867       -2.2947537323        0.5021813650
 O         -1.4763562343        6.0413493007       -0.9804978847
 H         -1.7988368493        6.9430631461       -1.0125612130
 H         -0.8935729020        5.9332187802       -1.7842087468
 O         -0.9871393900       -4.1107348040       -0.0040727908
 H         -1.0619583137       -4.3832274941       -0.9560096164
 H         -1.8743729919       -4.2815292922        0.3470592907
 O          1.5227272522        0.2182987402       -5.3208845394
 H          1.7701730833        1.1625352686       -5.4699523877
 H          1.2431224312        0.2173022014       -4.3761465002
 O         -3.6560626100       -3.9396023456        2.5802575651
 H         -3.7677627003       -4.5482019650        1.8352257902
 H         -4.2074754372       -3.1742820291        2.3466862446
 O          1.2895700187       -5.0540241906        2.5603792718
 H          2.0747739071       -5.4608703233        2.1736626996
 H          1.4806030412       -4.9411622382        3.5238271761
 O          4.3522879717        0.2940298697        4.5752846498
 H          3.6396487864        0.9814743207        4.4931480029
 H          4.9749949780        0.6107523388        5.2283661145
 O          4.0388735631       -0.2690423580        1.9174814149
 H          4.3902260068        0.0305854147        2.7696243209
 H          3.0687008893       -0.1593025240        1.9975212934
 O          4.3525329853        1.5816100134       -0.1042178048
 H          4.4712600578        0.8710015951        0.5511638243
 H          4.1841952313        2.3865996620        0.4197410152
 O         -3.1705423765       -0.4676185061        4.1461078422
 H         -3.3846081188       -1.3307454203        4.5789063318
 H         -3.9745705762       -0.1284937613        3.7389812371
 O         -0.7920355378       -0.2979708816       -6.5178024293
 H         -0.6419998132       -0.5202753565       -7.4362287445
 H          0.0927237446       -0.1275402748       -6.1103360821
 O          0.2046827443        5.1920212074        3.7866152686
 H         -0.7538317419        5.0453235149        3.7479278469
 H          0.4132300127        5.6142692088        2.9437828786
 O         -3.1935619069        0.4808947840       -1.4436235068
 H         -3.4830576032        0.9422187450       -2.2563353431
 H         -2.5084335306       -0.1534705264       -1.7334610968
 O         -0.7234991152       -3.2163190629        5.5644314974
 H         -0.7956096871       -3.3754023410        4.6017656735
 H         -0.3972271862       -2.3065453774        5.6685114520
 O          1.7149121192       -4.4475487615       -0.6592087183
 H          0.8695333815       -4.6605610882       -0.2506945183
 H          2.3976142005       -4.6325755454        0.0064481691
 O         -4.4685198382       -1.3634946310       -3.6330876905
 H         -3.8015964453       -1.7139991282       -4.2410281194
 H         -4.4349749759       -0.3998814824       -3.7528329250
 O         -2.3877988612        4.2947369244        3.3570825855
 H         -3.0270179894        4.1302093460        4.0501794781
 H         -1.9486398297        3.4232119289        3.1586774818
 O          3.7442505295       -3.7572208469       -2.3908639586
 H          3.2672523016       -4.5396718865       -2.1003819482
 H          3.5700107680       -3.0931349955       -1.6943934610
 O          3.6869061063       -5.0172697358        1.1684719159
 H          4.4375370762       -5.5496013594        0.9066887860
 H          4.0553806325       -4.2154366189        1.6049229739
 O          5.4754720372       -0.8399414513       -1.4085406906
 H          5.8085807419       -1.3866752933       -2.1522194843
 H          6.0577564418       -0.0865426137       -1.3126066110
 O          0.6019877224        3.0865896556        5.6503943692
 H         -0.2318796578        2.6053849730        5.7173035043
 H          0.4413686159        3.8828125280        5.1228642197
 O         -3.2113020309        4.5476809606        0.7819882524
 H         -2.5584021554        5.0597924713        0.2897255855
 H         -2.9802779682        4.6398423752        1.7259631185
 O          2.7046812833       -3.6916673668       -5.0104638322
 H          3.0601540227       -3.7754141908       -4.1116973623
 H          3.0857519521       -2.8820480301       -5.3703582931
 O         -2.3141538671        1.8299157717       -5.6435117522
 H         -1.8964142142        1.0541633955       -6.0486713404
 H         -1.5936232855        2.3040443836       -5.1845722524
 O          0.0613081944       -3.6509584550       -4.4042520063
 H          0.8394636251       -3.9178523550       -4.9175531015
 H          0.4569220007       -3.1319359244       -3.6673578015
 O         -3.6036677969       -5.0080407620        0.0750015002
 H         -3.7431480591       -4.3086444703       -0.5943106640
 H         -3.5493693664       -5.8337661096       -0.4068966978
 O          2.8559281410        5.6478233429       -0.2698465071
 H          3.5580543963        6.2901989265       -0.3648684364
 H          3.1887164055        4.9306855121        0.3402871277
 O         -0.2706881892        2.6665491078       -0.9585334849
 H         -1.1185929218        2.9972150928       -1.3080282218
 H          0.4466815928        3.0906901602       -1.4744599857
 O         -1.5146638131       -4.7775487440       -2.4707825351
 H         -0.9456703676       -4.5524147990       -3.2255312253
 H         -2.2656901388       -4.1605027244       -2.4880416900
 O         -2.4792715485        3.6208602794       -2.1458750151
 H         -2.4059533963        4.5435278815       -1.8743774557
 H         -3.3779924721        3.3374571771       -1.8838901770
