  146
       -243.93057955
 H          1.6922647976        0.5570359657       -2.0992239108
 C          1.9160228903       -0.2550215314       -1.4039726776
 H          2.6525215496       -0.9215278085       -1.8551652640
 C          0.6473199847       -1.0519508738       -1.1245240899
 H          0.8463908549       -1.7837897677       -0.3356580717
 H          0.4073053453       -1.5873141345       -2.0411344523
 N         -0.4759606963       -0.1764103838       -0.7915601497
 H         -1.3522901717       -0.6695659977       -0.9544126846
 H         -0.4576554659        0.0585207061        0.1939161963
 O          2.4554329951        0.2889115863       -0.2005129806
 H          3.2670221155        0.7958141730       -0.4583199633
 O          2.5566681383       -0.7744126620       -4.7575254936
 H          1.9565642675       -0.2332190224       -5.3165521631
 H          3.1262103907       -0.1042875352       -4.3453047701
 O          1.1212492820       -0.6949689583        2.4428148951
 H          0.8697312592        0.1259038507        2.0088227315
 H          1.9519643469       -0.5167662461        2.9319553308
 O          1.9871317919       -1.8610909043        5.3221568499
 H          2.5104520997       -1.0787067458        5.1002754794
 H          2.3155189523       -2.5466711702        4.7246176042
 O         -0.4582911476       -0.9170467613        4.6325014389
 H          0.2897731578       -1.2970777270        5.1332848333
 H         -0.1013883805       -0.8515702906        3.7226454663
 O          3.2864619391        0.1166893450        3.8347855656
 H          4.1445816017        0.1738102940        3.4011600429
 H          2.9075065737        1.0245844349        3.8220200243
 O          4.3995340678        3.1128011044        2.3565407546
 H          3.5419837588        2.9795282631        2.8057606707
 H          4.9268912604        3.6644768867        2.9349941421
 O          2.0437960904        2.4429090160        3.4779797247
 H          1.5834479873        2.3038379447        2.6226528477
 H          1.3274945705        2.3571957924        4.1507678555
 O         -3.8646326184       -4.8966518038       -2.2435746885
 H         -2.9651833964       -4.5557076853       -2.3917910800
 H         -4.2807379819       -4.9454142293       -3.1044429583
 O          2.1106373790        4.7655541497       -1.9421989817
 H          1.3737829870        4.6789546216       -1.3202117410
 H          2.9129068146        4.6278664419       -1.4045569559
 O          4.1821163060        4.0630689520       -0.3042203995
 H          4.1650694354        3.9150692798        0.6502538369
 H          4.4040581250        3.1965377594       -0.6822256919
 O          0.7824478279        1.8342635588        1.1843972189
 H          0.5492048755        2.6445706418        0.6711900976
 H          1.3997831809        1.3391395247        0.6037911257
 O         -1.6353864350        2.1838809916        2.5697244928
 H         -0.8679548677        1.8662797353        2.0737973811
 H         -2.0518746323        2.8455496796        1.9898550034
 O         -0.2759686952       -4.4560245034       -0.0951726260
 H         -0.1238798408       -5.3972977068       -0.0078031696
 H          0.2321725280       -4.0203732049        0.6262748534
 O          6.6163055652       -0.1279774570       -0.4945972049
 H          6.1608424757       -0.9945936832       -0.6830079825
 H          7.5325098793       -0.2437887088       -0.7441471444
 O          0.8996949881        1.0629130109       -5.8082476239
 H          1.1170593506        1.8292384050       -5.2600981397
 H          0.0096835233        0.7922836331       -5.5385140956
 O         -1.4098988603       -3.6769857055       -2.5319086103
 H         -0.8230567984       -3.2320253729       -3.1710429328
 H         -0.8768567896       -3.9087154470       -1.7557830870
 O         -2.8674866899       -1.6265513414       -1.5532569877
 H         -2.3630645204       -2.3412487006       -1.9895949683
 H         -3.5595438053       -2.0849852959       -1.0331621608
 O         -4.6195921449       -3.1995331995       -0.2421628461
 H         -3.9871389804       -3.4200908870        0.4660958557
 H         -4.5345130351       -3.9124288845       -0.9006517988
 O         -5.6621948961       -0.7744346436        0.4289745104
 H         -6.0536409033       -0.4361566508       -0.3925481633
 H         -5.4547197476       -1.7081925915        0.2652594373
 O         -2.5842652844        3.9194780326        0.6166239527
 H         -2.8137851262        3.4311781828       -0.1983312583
 H         -3.4306211233        4.0779710663        1.0505964153
 O          0.0018653723        3.8090959826       -0.3726888230
 H         -0.8233125061        4.1419717039        0.0057150885
 H         -0.2506539058        3.2186020261       -1.1161272872
 O         -3.2782555087        2.2871920762       -1.5044805759
 H         -3.2481111225        1.5918740362       -0.7974299458
 H         -4.2120783207        2.6284890671       -1.4578990353
 O          1.5376239216        2.8033499552       -3.6130807380
 H          1.7947853764        3.6149917572       -3.1059826427
 H          0.7353714286        2.4869295222       -3.1671966243
 O         -0.7046317379        1.9566847562       -2.2269261230
 H         -1.6402143874        2.1921781460       -2.1180478193
 H         -0.5665847109        1.1165201079       -1.6411051481
 O          3.5197669948       -2.7069523793       -3.0402502332
 H          3.2056567773       -2.0852421107       -3.7188500121
 H          3.4595457767       -3.5805890691       -3.4268141346
 O         -3.0002871847        0.1334042258        3.7701046781
 H         -2.6503610142        0.9712849277        3.4098363706
 H         -2.4439318837       -0.1016605217        4.5190263553
 O         -3.3809593468        0.6149731092        0.4797937449
 H         -4.1912715721        0.0616420898        0.4539713553
 H         -2.6798969557        0.0518097303        0.8776052039
 O         -2.4852604833       -3.5345457600        1.3552946365
 H         -1.8013572523       -3.9405872110        0.7985062187
 H         -2.2185643862       -3.6775673027        2.2893298936
 O          0.0681555386       -2.0454000304       -4.1169524168
 H         -0.4919113390       -1.2609019080       -4.2693260937
 H          0.9610724299       -1.7745242743       -4.3687129355
 O          3.8056055274        1.4906698576       -3.7555795134
 H          4.3181951940        1.9725023182       -4.4056225129
 H          2.9368189286        1.9720286315       -3.6880659305
 O         -5.7624847058        2.8482212744       -0.9749053976
 H         -5.6321813225        2.8347744360       -0.0022957246
 H         -6.1658597430        2.0009730574       -1.2147238294
 O         -5.7373237354        0.5111387791        2.9982016991
 H         -5.8510123291       -0.0483552083        2.2178188097
 H         -4.8843743129        0.2658120765        3.3835266365
 O          5.2823174189       -2.3461368648       -0.9008969029
 H          4.6833412058       -2.2604894801       -0.1351095012
 H          4.7142884482       -2.4558756516       -1.6805527112
 O          3.2730211769       -3.3188861814        3.2238537361
 H          4.0584381427       -3.8474164161        3.3612609693
 H          3.5029932328       -2.6375244134        2.5511821204
 O          4.5790121050        1.5042011704       -1.1860855446
 H          5.3863318638        0.9855149460       -1.0250075789
 H          4.3895898962        1.4669900746       -2.1454217654
 O         -1.2941553908       -3.5206971330        3.7487475849
 H         -1.2607121404       -2.6707339752        4.2122177805
 H         -0.4495364621       -3.5812262008        3.2691022242
 O         -1.6604275412       -0.9764347660        1.7052450093
 H         -1.9588247336       -1.8784445489        1.4821476671
 H         -2.1087018982       -0.7526331472        2.5423238616
 O         -0.1221661071        1.8430144258        4.8810788576
 H         -0.7765011471        2.1408531403        4.2308060478
 H         -0.2297207173        0.8759570833        4.9443681375
 O          0.8492862155       -3.3312397678        2.0298321592
 H          0.8268590654       -2.3535473105        2.0471514728
 H          1.6937384758       -3.5612424065        2.4490338013
 O         -3.8750349773        0.2089711431       -3.1640328867
 H         -3.6331664554        1.0398233612       -2.7091394964
 H         -3.5108756501       -0.5094591624       -2.5913900552
 O          3.7974806679       -1.5726672828        1.2600424386
 H          4.4160090511       -0.8835629345        1.5721832485
 H          3.0828014111       -1.0679312254        0.8272243667
 O          5.3706008044        0.5378765199        1.9280381282
 H          5.9519409347        0.4251276482        1.1598688933
 H          5.0766572319        1.4662196075        1.9198170248
 O         -4.8587220279        2.6287158292        1.5706361568
 H         -5.3937843690        2.1307200048        2.2152547756
 H         -4.2029337403        1.9649841232        1.2797141765
 O         -6.3054005083        0.2839928172       -2.0354004897
 H         -7.0097362861        0.1414121021       -2.6665471122
 H         -5.4556995547        0.2202882930       -2.5383837705
 O         -1.3477565994        0.3008751061       -4.3446888814
 H         -1.0535728691        0.9008321007       -3.6327235332
 H         -2.3047468922        0.1969368425       -4.2139642807
