  221
       -371.25154893
 H         -2.5232985516       -1.1759977355        0.1872058517
 C         -2.3995847830       -0.4175925721        0.9594705992
 H         -2.3965602995       -0.8838469182        1.9405131222
 C         -3.5520172086        0.5838268759        0.8661744653
 H         -3.5094295787        1.2789884673        1.7038162583
 H         -4.4877924892        0.0288369636        0.9235153171
 N         -3.5369813420        1.3462223145       -0.3725861595
 H         -2.6765102770        1.8809110434       -0.4550192559
 H         -3.5930397491        0.6998223273       -1.1574257908
 O         -1.1341130245        0.2116221622        0.7964169581
 H         -1.0188163559        0.3749997803       -0.1669000367
 O         -6.4970613985        0.0427355875        2.5899462293
 H         -7.2107629042        0.0061029592        3.2276382796
 H         -6.8114200574       -0.4206616627        1.7822723017
 O         -0.4056846080        3.3288243895       -3.4646553805
 H         -0.5162852686        4.2929178774       -3.5446245252
 H          0.5503770926        3.1533171247       -3.4673075277
 O          3.3324609922        0.7151400189       -3.7527437548
 H          2.8241871109        1.5428394611       -3.6489442062
 H          4.2601081096        1.0088872584       -3.7986230848
 O         -2.6015104370        5.5121300786        1.8651195544
 H         -2.9441238613        4.7682446281        2.3888232347
 H         -1.6828949581        5.2901310895        1.6359069921
 O         -6.4772376644        0.3087709126       -1.6055504379
 H         -5.6105990754       -0.0920344495       -1.8186463114
 H         -6.8555687488       -0.2662557752       -0.9255344359
 O          5.5355474823        1.7662443953        1.5658237799
 H          5.6189058203        2.5499021851        2.1514994666
 H          5.3795369081        2.1405647442        0.6824858709
 O         -3.3298271802       -5.5663844739        0.8614582755
 H         -3.1720399752       -5.2101928844        1.7607671088
 H         -4.2406371222       -5.3381464801        0.6646973362
 O          1.6968621821       -2.3576430093        1.6743499153
 H          1.6490002581       -1.7788082582        0.8873515003
 H          1.8644536361       -3.2487730971        1.3265424167
 O         -6.4456878289        1.2221003469       -4.2310182991
 H         -6.6567406823        0.8693727550       -3.3531057424
 H         -5.9139375937        2.0217864817       -4.0606506730
 O         -3.4849108705        5.6635768882       -3.0391670539
 H         -3.5915507960        5.6110704174       -2.0728563409
 H         -3.9740912770        4.8840200188       -3.3655428450
 O         -0.8771149401        0.5113592128       -1.8326237882
 H         -0.4244024077       -0.0618844686       -2.4775431005
 H         -1.5944702730        0.9608213187       -2.3180295725
 O         -3.1305368768       -4.4306877015        3.2853343864
 H         -2.2864623394       -4.4471262536        3.7546312898
 H         -3.5083948330       -3.5491508003        3.3857714793
 O          3.7509894262       -2.0955927932       -3.9499407368
 H          3.5800889873       -1.1464379832       -4.0244376240
 H          4.7223294080       -2.1958308755       -4.0177386379
 O         -2.3663033827       -0.6278432740        4.4924347784
 H         -1.6347922389       -1.0834093961        4.0413841365
 H         -1.9828263975        0.1578990263        4.8948942933
 O         -0.6439098762       -2.1133249696        2.9659082162
 H         -0.6599323396       -2.9376220091        3.4994986212
 H          0.2709647701       -2.0637018327        2.6281288903
 O         -1.0903256275        2.3702870398        2.5090391195
 H         -1.1068342958        1.6245288013        1.8790093276
 H         -2.0076870127        2.6744573767        2.6094713995
 O          2.7543568291        4.2157487269       -0.9640510799
 H          2.1693141909        5.0077691365       -1.0690266121
 H          2.4342613314        3.7702530780       -0.1639847388
 O         -0.1399794743        4.6817670946        0.9059937269
 H         -0.6500768624        4.1462632013        0.2529160771
 H          0.5562271585        4.0678787406        1.2059148628
 O          0.1832583382       -5.5149291026        1.4658402581
 H          1.0500118331       -5.3139027051        1.0779119096
 H         -0.1973959761       -6.2379074661        0.9615084032
 O          2.5461909519       -4.6123801206        0.3275364401
 H          2.9021595094       -3.9786341808       -0.3305390341
 H          3.3011432135       -4.7637607341        0.9489660868
 O         -1.4683861394        3.3197139025       -0.9221066098
 H         -1.1239410448        3.3081086792       -1.8329740813
 H         -2.2725834774        3.8771902734       -0.9205822802
 O          3.4133862767       -2.6796779608       -1.3434779566
 H          3.5482855298       -2.5672508494       -2.3035259308
 H          2.7574366356       -1.9864546747       -1.0919529834
 O          0.7162211809       -0.7051397625       -3.6116949017
 H          0.8919306598       -1.6382604339       -3.8149221772
 H          1.5325403145       -0.2209444876       -3.7530643853
 O         -0.4192202649       -4.4899259318        4.1114687981
 H          0.3505014999       -4.1434540045        4.6165695960
 H         -0.0736422520       -5.0043651488        3.3705662871
 O         -1.3738812313       -3.3836334519        0.7473575001
 H         -0.9474736533       -4.2279381940        0.9798914045
 H         -1.2614582549       -2.8170943717        1.5411882661
 O          5.9208256181        1.6349189289       -3.3538136073
 H          6.2234555064        0.8815364992       -2.7790759160
 H          6.6067778757        1.7624592906       -4.0079195391
 O          2.9711365764        3.3757416626        3.6079426917
 H          2.1349822692        3.7479259357        3.9418499311
 H          3.1166997402        2.5367044336        4.1106924769
 O          3.5689386893       -0.1777536413        1.3978259669
 H          3.4740921730       -0.0724264020        0.4304558336
 H          4.1604874452        0.5424671545        1.6690842085
 O          2.3318013072        3.2210048697       -3.3966985266
 H          2.7105536810        3.9539670076       -3.8819505662
 H          2.4325872587        3.4362644037       -2.4357238507
 O          4.6148860909       -4.4559678376        1.9554504025
 H          4.2830802275       -3.9708281476        2.7331338130
 H          4.9949602301       -3.7478738242        1.4007637114
 O          3.6922535237       -2.4310446738        3.5182619543
 H          3.0103297740       -2.1973016773        2.8598445569
 H          4.2632579145       -1.6542356481        3.6116869396
 O          5.4988487941        4.0110424464        3.0038429029
 H          4.5944264798        3.8783711870        3.3548896144
 H          5.5028715537        4.8642242817        2.5693653183
 O         -0.3936631001       -2.5175852786       -1.5392134426
 H         -0.8406607297       -2.7191075932       -0.6876936602
 H          0.1329617659       -3.3232329273       -1.7206064324
 O         -0.7690599937        1.6358495796        5.0851749341
 H         -0.3878135127        2.4293841423        5.4654531938
 H         -0.8337602989        1.8175720165        4.1207417763
 O         -5.4023423643       -3.1926714113        0.9190116859
 H         -4.9663145875       -2.8583963722        1.7194250143
 H         -4.7265656756       -3.1724578340        0.2103689410
 O          5.1976013476       -2.1891370186        0.5806955570
 H          4.6376105051       -1.5308028604        1.0419406213
 H          4.7087828207       -2.3803349168       -0.2450067143
 O         -4.8335677541        3.2754529199       -3.2862425943
 H         -4.0369507990        2.7078382704       -3.2998154509
 H         -5.1751130499        3.2271237149       -2.3731496530
 O          1.5751253198       -3.0705314314        5.1801808535
 H          2.4250070698       -3.0217317593        4.7149269189
 H          1.2744476588       -2.1478732262        5.2185639126
 O         -0.9060376427        5.9674209917       -3.3038147582
 H         -1.8927558872        5.8541047676       -3.1891474032
 H         -0.8020592216        6.7098609045       -3.8982132305
 O         -4.4208373804       -1.8186086970        3.1659600318
 H         -5.1089827179       -1.1453886552        3.0639602954
 H         -3.7336434400       -1.3907440760        3.7073648218
 O          0.9236703785        6.0910995844       -1.1511308123
 H          0.4581359616        5.7801407143       -0.3486028115
 H          0.2691105830        6.0666365685       -1.8664081701
 O          6.4241559514       -2.2138974570       -3.7124757234
 H          6.5414047698       -1.5714221234       -2.9821483755
 H          6.8254125766       -3.0321310467       -3.4195635939
 O          6.4829178052       -0.3829333582       -1.7453172285
 H          5.5569930698       -0.3670889090       -1.4163402586
 H          7.0353188970       -0.1560256190       -0.9604844230
 O          1.8024927386        2.8215089296        1.3055377910
 H          1.4020262986        1.9941474857        1.6641550467
 H          2.3745358626        3.1067514393        2.0523797497
 O         -1.5103301577       -2.8882324694       -3.9343990776
 H         -0.6880128449       -3.1071164424       -4.3889180835
 H         -1.2164618068       -2.5857100194       -3.0426113511
 O         -2.8776262495       -0.6113891429       -4.6208440094
 H         -3.7181886589       -0.7632601536       -5.1008014740
 H         -2.3878036991       -1.4487156703       -4.5657433867
 O         -7.2367796404       -1.4174793109        0.4611416046
 H         -8.0692955948       -1.8871011324        0.4123406843
 H         -6.5286580803       -2.1197416654        0.5826900902
 O          1.2738998622       -3.3633725010       -4.1809864011
 H          2.2097697471       -3.1367127366       -4.2759598504
 H          1.2192723809       -4.0094004358       -3.4594199185
 O          0.3888743514        4.2216526607        3.9108925642
 H          0.2094581228        5.0897206550        3.5462704465
 H         -0.0609738367        3.5920449854        3.3177093728
 O         -5.6553237595        2.7693979648       -0.6809856205
 H         -4.7805433692        2.2502186831       -0.5366936772
 H         -6.2483736030        2.0704818463       -1.0028066390
 O          1.1267767712        0.4434486978        2.2588810250
 H          1.9762030052        0.0672534477        1.9457591012
 H          0.3991419032        0.0697117505        1.7374021351
 O          0.8152342209       -4.8867714053       -1.8738787007
 H          1.4763092236       -5.0172188546       -1.1825198448
 H          0.0177996642       -5.3841348868       -1.5906770428
 O         -5.3260261138       -0.7284506509       -5.6594792851
 H         -5.7570978721       -0.0354958769       -5.0986347661
 H         -5.5209079620       -0.4806637715       -6.5632503601
 O          7.6766605280        0.3262468617        0.5190206299
 H          7.8147622384       -0.4238225335        1.1115845184
 H          7.0048530533        0.8830157932        0.9497025890
 O         -5.9291747520        2.7335650201        2.0153727815
 H         -5.9236736156        2.8217752019        1.0383760837
 H         -6.1013252890        1.7963929881        2.2003374779
 O         -1.4464940566       -6.0539276794       -1.0263622337
 H         -2.0720609066       -5.8971968993       -0.2902410740
 H         -1.9746030719       -5.8961564244       -1.8201480222
 O         -3.4694173906       -3.2331784419       -0.9466508427
 H         -3.3938248137       -3.9295744482       -1.6199363783
 H         -2.7602812684       -3.4058388720       -0.2941293267
 O         -2.9974115442       -4.9185297237       -3.0736369409
 H         -2.4369481272       -4.2099959136       -3.4727903007
 H         -3.6859617931       -5.1162257418       -3.7075629401
 O          1.5294978567       -0.9845065498       -0.5916046101
 H          0.7503204348       -1.3916507533       -1.0299044787
 H          1.5529239942       -0.0403099972       -0.8634032132
 O          1.1058691699       -0.3413121247        4.8289979156
 H          1.0725627982       -0.1680685461        3.8650161361
 H          0.4222088992        0.2441134099        5.1922152110
 O          3.3899502699        1.1157015615        4.9186288869
 H          2.6112016253        0.5249141504        4.9800593470
 H          4.1372779172        0.5659964996        4.6615747165
 O         -4.0661637405       -0.8297499077       -2.1546335782
 H         -3.6524156977       -0.7667321567       -3.0344834219
 H         -3.8446150130       -1.6979374868       -1.7821880143
 O         -3.6103966911        3.2630404031        3.0969475210
 H         -3.7703666556        3.2597861551        4.0406476707
 H         -4.4958588122        3.1045181435        2.6648238029
 O          3.9790191272        0.2784135526       -1.1641189026
 H          4.2624354845        1.2013568946       -1.0105029531
 H          3.4998477701        0.3037839429       -2.0108925125
 O          7.3222568954       -1.9122177404        2.1850361017
 H          6.6153002890       -2.0880793677        1.5311845616
 H          7.6050158640       -2.7639979949        2.5182155063
 O          5.5528531956       -0.3125777905        3.5940832440
 H          6.2816031609       -0.8869015073        3.3069681535
 H          5.6381487834        0.4865732925        3.0615638166
 O         -2.6084121442        1.7713798823       -3.4405989051
 H         -2.6908618136        1.0007081623       -4.0302808121
 H         -1.8688438588        2.3156004906       -3.7522623171
 O          5.0123958693        2.7558359878       -0.9559293521
 H          4.2975546024        3.4140985893       -1.0143471067
 H          5.4140832550        2.6677858073       -1.8321524305
 O         -3.6510552193        4.8480266408       -0.4800908223
 H         -3.3709515037        5.2071722362        0.3954516773
 H         -4.4698475396        4.3570023340       -0.3513787266
 O          1.4655967820        1.5949595914       -1.2220502794
 H          0.5365894443        1.4896867502       -1.5045360971
 H          1.4559928992        2.0536126031       -0.3747252862
