  279
       -473.55010775
 O         -0.6377545861       -3.7030163692       -5.3032890867
 H         -1.0036029142       -4.4290204918       -5.8066931420
 H         -1.3003823150       -3.4742750305       -4.6035726662
 O          6.5267702326       -1.5664762854        3.2164963775
 H          6.2032297290       -1.2179157622        2.3569108673
 H          7.4976767623       -1.6641258579        3.0836261952
 O          4.7529979652        0.4842429751       -2.3402480615
 H          5.1061321845        1.3231001104       -2.7065725764
 H          4.1246422049        0.7766854766       -1.6458315523
 O         -7.3437306632       -1.3115400612       -3.2040960673
 H         -6.7683259299       -1.7015575159       -3.8678422641
 H         -7.5311279275       -0.3810106149       -3.4734114527
 O         -2.3176682563       -2.9716937427       -3.4063270882
 H         -2.3165773463       -3.3670809572       -2.5158231610
 H         -2.0448158604       -2.0397051650       -3.2916007909
 O         -2.5190061317       -3.9883008433       -0.8619068474
 H         -2.7179725523       -3.2770472441       -0.2191446743
 H         -1.8952084309       -4.5718976219       -0.4164346042
 O         -1.1919479795       -2.3484110323        2.7964794065
 H         -1.6452609350       -2.7542713953        3.5636784011
 H         -0.3151326400       -2.7417916659        2.7668357126
 O          1.4641541247       -3.6491205758       -3.5936976375
 H          0.7864347017       -3.7803721434       -4.2799152535
 H          1.1871325705       -4.1487311215       -2.8023077799
 O          1.3825059152       -1.0699337267       -3.0625188838
 H          1.4100324134       -2.0369255370       -3.2538911138
 H          2.0007132799       -0.6690931478       -3.6955044749
 O          3.2712760764        4.0677888812        4.5948581480
 H          2.4799816064        3.7142225342        5.0227517390
 H          3.7776809084        3.2958820052        4.2843069894
 O         -3.0631574344        4.1913098637        2.9203500949
 H         -2.0950543176        4.1176469175        2.9672102449
 H         -3.2855814861        4.3135456780        1.9837044686
 O         -0.0157659117        2.4688654234        0.3430681479
 H         -0.9506535294        2.2187914757        0.5335175142
 H          0.1744110736        2.1828192197       -0.5677741605
 O          6.0463893163       -0.9889022146        0.6476073023
 H          6.0975610060       -0.0437923081        0.3987622990
 H          5.3060191168       -1.3660588125        0.1295865033
 O         -2.6643590562       -5.3247986426        2.6982958826
 H         -2.5145875145       -4.8728773698        3.5413776248
 H         -3.5378667725       -5.0236350325        2.3912928342
 O         -0.7878617978        5.0805432747       -3.9095361401
 H         -1.4112444772        5.0543623604       -3.1678087454
 H         -1.0160729584        4.3233713742       -4.4738986467
 O         -1.5151318222       -1.0633309371        5.5390245088
 H         -0.6379190736       -1.4419846026        5.3491879612
 H         -1.3962879570       -0.1037560422        5.6232907975
 O         -1.8537883117        2.0981125679       -2.4763852240
 H         -1.7513254196        2.2946744215       -3.4377399915
 H         -1.8145484042        2.9816364382       -2.0567733314
 O          3.1932973352        1.7868643250       -0.7062723091
 H          2.3312795703        1.6846369489       -1.1596122264
 H          3.4953934124        2.6995705684       -0.9029156163
 O         -1.2002786260       -0.4996963293       -3.3380813702
 H         -1.4514241969        0.3640362777       -2.9829862085
 H         -0.2451271195       -0.6179413593       -3.1602780858
 O         -1.3236690149        2.6195604675       -5.0047484750
 H         -0.4432938820        2.1926727217       -4.9940629269
 H         -1.8825555525        2.0374761043       -5.5709508245
 O         -5.0906781973        2.1610996520       -3.9702923283
 H         -4.6989103890        1.2589477096       -4.0407655063
 H         -4.7512678504        2.6536894997       -4.7174260804
 O         -4.2136009219        1.8225955867       -1.3308153725
 H         -4.8864344295        2.1225457425       -1.9511800778
 H         -3.3660520003        1.9242439135       -1.8243689660
 O          5.6172672500        2.8839658042       -3.1749537870
 H          6.5337969384        2.7693992681       -2.8504642194
 H          5.1977373216        3.4785238842       -2.5312118494
 O          8.8796896753        0.8236682777        1.4795936416
 H          8.1734594637        1.3525871570        1.8936682421
 H          9.6628466838        1.3746312984        1.4720859711
 O          4.2922506272        4.1931503124       -1.0885569480
 H          4.7704508366        4.1988305693       -0.2402332414
 H          3.5675002834        4.8337182191       -0.9586192963
 O         -0.4780284124       -0.9147638487       -5.9227282360
 H         -0.3898100491       -1.8731832817       -5.9833195184
 H         -0.8152273409       -0.7514956682       -5.0187279065
 O         -9.1245267526       -0.8006499075        0.3636062450
 H         -9.0087745052       -1.4237997170        1.0972997522
 H         -8.2253951101       -0.7193008109       -0.0394413774
 O          1.0000815986       -4.8410232886       -1.2474145676
 H          1.9142809349       -4.8361911648       -0.9109487530
 H          0.4165687899       -4.7905690642       -0.4838263251
 O          0.9639382316        1.1992279252       -4.7394841262
 H          0.8720399405        0.4968566062       -5.3954503322
 H          1.8138143936        1.6586644654       -4.8749556044
 O         -4.1149654333        4.6206877701        0.3572091204
 H         -4.7388459486        5.3453488067        0.3832370360
 H         -4.6323967635        3.7994604534        0.5268087188
 O          0.9382950129        1.8967502084       -2.1064246115
 H          0.8815370408        1.4409746958       -2.9629966041
 H          1.1095702244        2.8317974035       -2.3505453986
 O          1.5084143322        4.4047285625       -2.8206024602
 H          1.7722339336        5.0971322131       -2.2100974707
 H          0.6900598083        4.7258067540       -3.2811807686
 O          8.7592678024       -0.5275773258       -0.9548725619
 H          8.7072280647       -0.0116984019       -0.1345974160
 H          8.6742598125       -1.4552385642       -0.6886260332
 O         -3.2676189782       -2.2274391698        1.0419112447
 H         -3.7424440375       -1.3678618508        1.0479246220
 H         -2.5759611302       -2.1573114246        1.7223013849
 O          4.6902256500        1.8506853656        3.6791017301
 H          4.3010272159        1.3318077538        2.9394542911
 H          4.9529989360        1.2051260369        4.3543270211
 O         -8.1488845738       -2.6192049371        2.1285982667
 H         -7.6811862470       -3.0336023055        1.3505945220
 H         -8.3913585699       -3.3353181979        2.7144447892
 O          5.7767331323       -3.8945632560        2.0498134418
 H          6.4123381623       -3.8552018612        1.3177834253
 H          6.1065961272       -3.2434937312        2.6956425891
 O         -3.4704260038       -0.7300264998       -1.4763852187
 H         -2.5763220565       -0.7140663200       -1.0447630750
 H         -3.8892713844        0.1186641835       -1.2413860464
 O         -4.0213456901       -0.2608371763       -4.0687805058
 H         -4.4925268616       -1.0944562564       -4.2671873261
 H         -3.6516190824       -0.4028307022       -3.1717217953
 O         -5.5982849758        2.5276886420        1.0188859604
 H         -6.1500011986        2.5001482080        1.8307757102
 H         -5.1563228341        1.6525912397        0.9912994581
 O         -2.6934474000        0.7339959220       -6.2579425465
 H         -1.9503257937        0.1389378171       -6.4433833818
 H         -3.1705222346        0.3264523623       -5.5125340838
 O         -7.6377719968        1.3086620786       -3.5495191945
 H         -6.7797673647        1.6727598640       -3.8353983244
 H         -7.7817927373        1.6895153941       -2.6727372075
 O         -0.8479730598        0.3974656970        2.5988983461
 H         -1.0517040866       -0.5402638097        2.7633881332
 H          0.0881951839        0.5252414975        2.8455341085
 O         -9.0204131834       -2.8579126810       -1.5991851723
 H         -9.3903715040       -2.1518565666       -1.0503836095
 H         -8.5175192949       -2.4074328263       -2.2972614745
 O          5.6267969135       -0.1802962120        5.2353567658
 H          6.0343835476       -0.7014080176        4.4933033547
 H          6.1956803308       -0.2815736699        5.9968227075
 O          6.0089065356        1.6184897087        0.1217402498
 H          6.2927358838        1.9965753937        0.9758494149
 H          5.0520273156        1.7295046485        0.0698460333
 O          7.0124508106       -0.8265413201       -3.0311008911
 H          6.1878763820       -0.4793551410       -2.6448977501
 H          7.7092254248       -0.6383244547       -2.3809362612
 O          1.2514238147       -3.9729525641        2.5728437405
 H          1.9908935138       -4.6174739473        2.6175672823
 H          0.5805790874       -4.4057464065        2.0152974908
 O         -2.5501516899        2.0278828541        0.9223467399
 H         -3.2040451756        1.9889864413        0.2109092612
 H         -2.7546178132        1.3257885199        1.5456730411
 O         -4.8559173817       -0.0697641058        1.0868242553
 H         -5.3706152356       -0.2679678987        1.8955135195
 H         -5.4541964147       -0.3010005926        0.3467398508
 O          3.7721923043        0.4063466955        1.6403574918
 H          3.6656304428       -0.5547786308        1.6571000107
 H          3.3091926197        0.7357868875        0.8573802851
 O         -4.1902845697        1.9509855873        3.7924077724
 H         -5.1344542971        2.1046252599        3.8692828058
 H         -3.8059870861        2.7819508956        3.4189574453
 O          3.0805792026        2.8296614059       -4.5362150965
 H          2.6244367607        3.4991699570       -4.0037439232
 H          4.0011240098        2.8346837162       -4.2549625278
 O         -6.7327248825       -0.4401458933       -0.7586022114
 H         -6.9259855457        0.5096330379       -0.9236571945
 H         -6.7979079785       -0.8853190539       -1.6276037849
 O         -9.2688963802        1.6996869226        1.1861765933
 H        -10.1810662090        1.9851282719        1.2194136737
 H         -9.2823834860        0.7420117967        0.9230847615
 O         -2.1655466345        4.5848130784       -1.5497904867
 H         -2.9618114549        4.5625045778       -0.9912611274
 H         -1.4599046162        4.9058936876       -0.9585226317
 O          6.0154577066        0.5635842852       -5.2811931956
 H          6.0690522986        1.4648814945       -4.9535581047
 H          6.5190443617        0.0156820143       -4.6581142423
 O          1.6130126833        0.9496189198        3.4767588928
 H          2.2177191767        0.2564046840        3.8106764693
 H          2.0982999995        1.4845396682        2.8171433641
 O          4.1381021837       -2.0884395299       -0.8426175372
 H          4.2108495695       -2.2365176542       -1.8118346558
 H          3.3762536603       -1.4879477825       -0.7016744028
 O          0.8411409122       -2.3496885943        4.9327949956
 H          1.6570450021       -1.8256289754        4.9136181917
 H          0.9866715956       -3.0762995717        4.3150677592
 O         -3.3308085194       -0.6438652077        3.5103053882
 H         -3.6855369283        0.2558291485        3.6021372425
 H         -2.6962359992       -0.7717934285        4.2408800277
 O         -4.9868059945       -2.7533239909       -4.1494589885
 H         -4.0589336047       -3.0295046691       -4.2033957290
 H         -5.1980099630       -2.8758054476       -3.2001943843
 O          3.4310975894       -5.4580980992        2.1915996207
 H          3.4586284959       -5.2907767200        1.2312785507
 H          4.2976788662       -5.1687054394        2.5016069593
 O          7.6788246802       -2.9837234500        0.0966699701
 H          7.0850884489       -2.2197139904        0.2776176396
 H          7.3798827494       -3.3254720667       -0.7662671231
 O          4.0768673850       -2.8569148867       -3.3991902848
 H          3.2375379263       -3.3228056545       -3.5318344464
 H          4.0097445665       -2.0474951758       -3.9482011684
 O         -6.5632591309       -0.6805707191        3.1054610848
 H         -7.2164314708       -1.2922251795        2.7159230637
 H         -6.0846046766       -1.2261368320        3.7558662767
 O         -2.5251206216       -3.5712430010        4.8444735945
 H         -2.1402701667       -3.0057602715        5.5226318085
 H         -3.4687323374       -3.3080730409        4.7872931691
 O         -1.6311121565        1.5952444926        4.9037456564
 H         -2.5530567610        1.8700897802        4.8353614053
 H         -1.4040590483        1.2498736040        4.0102645575
 O          2.2796070308        5.7871327441       -0.2354048492
 H          1.3216392625        5.6001438962       -0.1754992299
 H          2.5368993037        5.9092007923        0.6864018388
 O          0.7573722872        2.8643204135        5.0935246408
 H          1.1244945975        2.1021283957        4.5870245935
 H         -0.0970883373        2.5391883372        5.4161785221
 O          9.0072466605       -1.8361059884        2.3489331945
 H          8.8073804435       -2.3959799293        1.5857234669
 H          9.0978744919       -0.9299511807        2.0142637280
 O         -0.2582552325        5.0703497560        0.2712722837
 H         -0.5681399487        5.3057644096        1.1489426208
 H         -0.1206938659        4.0849647188        0.2988294556
 O          3.1646791224       -1.0179781405        4.4048586289
 H          3.9841921075       -0.7696683237        4.8567909331
 H          3.4223688911       -1.5034124236        3.5922973328
 O         -0.6899279891       -5.2112628509        1.0254137223
 H         -0.4620052633       -6.1415928613        0.9752670165
 H         -1.4605708189       -5.1787776844        1.6653309912
 O          7.8304069114        2.2142000306       -1.8157051489
 H          7.2232752179        1.9933104721       -1.0847004866
 H          8.3843322946        1.4391350047       -1.9384881243
 O          6.9530358647        2.5001449181        2.4975448639
 H          6.1458276028        2.2519062647        3.0194687080
 H          6.8337441136        3.4335359853        2.3018593040
 O          2.1157725324        5.3615270568        2.5960486994
 H          1.1754518958        5.2600569046        2.7991891676
 H          2.5891415087        5.0625254787        3.4072874340
 O          2.3778911310        2.8351430959        1.7013027678
 H          1.6811006902        2.5897420374        1.0755335055
 H          2.1766240717        3.7475465471        1.9887352416
 O         -0.3016517724        3.9476464662        2.9018330288
 H         -0.2793995570        3.1602223994        2.3444448689
 H          0.0419139930        3.6483297063        3.7761663131
 O          4.8382943346        4.0434752619        1.5663524161
 H          4.0878844410        3.4208177983        1.6284619693
 H          4.5905788806        4.7854489281        2.1201629706
 O          3.5284830889       -2.3236707513        2.0909103422
 H          2.7388275725       -2.8780704563        2.1603424834
 H          4.2931514579       -2.9187372632        1.9703646291
 O          3.5914197572       -0.4485076216       -4.5112706609
 H          3.9639680172       -0.0658166232       -3.6811127373
 H          4.2278395998       -0.1594877734       -5.1821921397
 O          3.5990945960       -4.6248784547       -0.4070300716
 H          3.8174548773       -3.6574652725       -0.4679301785
 H          4.2695264244       -5.0695372525       -0.9270957837
 O          6.6121593166       -3.4428499799       -2.3707970856
 H          5.7311600038       -3.5460790906       -2.7518669742
 H          6.9022248030       -2.5795586199       -2.7242519103
 O         -4.9883328196       -2.8900768388       -1.4595749598
 H         -4.3242730353       -3.5786609599       -1.3320831101
 H         -4.4894296708       -2.0421246513       -1.3774134048
 O         -4.9526220209       -2.5798301172        4.1906745643
 H         -4.3383412426       -1.8667573088        3.8767482141
 H         -5.0747230622       -3.1788576984        3.4308197472
 O         -4.9612017284       -4.0538674823        1.9001907161
 H         -4.3782645402       -3.3672555186        1.4905825787
 H         -5.6929076694       -4.1912285396        1.2881165192
 O         -7.0595039803       -3.6938475865        0.0184207110
 H         -6.3236536602       -3.2982116654       -0.4948979836
 H         -7.8331937616       -3.5905995359       -0.5797030770
 O         -7.1947945167        1.9672917300        3.0669571032
 H         -8.0119360395        1.9882164980        2.5455082577
 H         -7.0050197683        1.0193268979        3.1966764281
 O         -7.4377316667        2.1405580130       -0.8580559567
 H         -8.1967708145        2.1191204017       -0.2536154030
 H         -6.6852259127        2.4180168494       -0.2888307071
 O          1.8231140278       -0.6772941459       -0.4464697088
 H          1.6745886316       -0.7503491417       -1.4100598591
 H          0.9383492281       -0.5730135947       -0.0835025468
 O         -1.0789322839       -0.6052076866        0.0021889880
 H         -1.0915463064        0.0069275965        0.7591803268
 H         -1.0971178231       -1.4911988667        0.3708637293
 O         -1.1332119511       -6.2129848742       -2.5840838244
 H         -1.8178545069       -5.5562154339       -2.4421543546
 H         -0.3201162693       -5.8616924505       -2.2009147185
