  601
      -1018.96660939
 H         -0.8040033442       -0.0886374327       -0.3620116901
 O         -1.3573718899       -0.8720862875        0.0199960245
 H         -1.5460769364       -0.7631623763        0.9820595776
 H         -0.9706200962       -1.7847522970       -0.2351578454
 O         -0.4401986658        1.9235815775        1.6967062177
 H         -0.6204615361        2.8793899359        1.7270553568
 H         -1.2485903838        1.4446197398        1.9414138082
 O         -2.5864515841       -0.1941710768       -2.4133409109
 H         -2.6690367537        0.7568222679       -2.6167805591
 H         -1.8844560341       -0.5577474637       -2.9546441869
 O          4.4467089803        0.6857316083        4.1879875394
 H          4.2852872173        0.7376514201        5.1461941654
 H          3.5995958855        0.9059830492        3.7552099908
 O          1.0903993156       -0.1145391685        1.0882138076
 H          1.8722317372        0.2984954222        0.7009208637
 H          0.5466599878        0.6368461197        1.3924187248
 O         -0.2555618708        1.0745923379       -1.0416590205
 H          0.6703463785        1.3231859034       -0.8566505761
 H         -0.3626605083        1.0847452753       -2.0125210732
 O          7.3996107582       -3.1784362835       -1.6270605100
 H          6.6402652359       -2.5482623284       -1.5354528367
 H          8.1571620167       -2.6256089012       -1.3861501499
 O          2.3913566073       -2.3744700016        0.2063611858
 H          1.6475691322       -1.9400606610        0.6489985610
 H          2.0685656611       -3.2592891081       -0.0560431598
 O         -4.1320574555        0.1787559585       -4.8648495507
 H         -3.8600131022       -0.7397318932       -4.6426997201
 H         -4.6998538489        0.5069532787       -4.1406546376
 O          0.0528298743        3.2746175829       -5.9428556894
 H          0.7219404469        3.9586159801       -6.1507927485
 H         -0.4623336552        3.6277790724       -5.1841882168
 O          1.2826704148       -4.6631179539       -0.4725568454
 H          1.1253769526       -5.2976063971        0.2545999954
 H          1.5478899039       -5.1694184145       -1.2583986299
 O          2.4921574394       -1.1390264052        3.0706691322
 H          1.7710586261       -0.7983235547        2.5004729891
 H          2.4801755337       -2.1177747714        2.9933693306
 O          3.6062977162        3.7791976042        4.2016835115
 H          4.2945024462        3.2886945733        4.6651597820
 H          4.0910408341        4.2770665503        3.5116219654
 O          2.1614307657       -3.7151884409        2.7707558248
 H          2.7248818460       -4.1420692837        2.0954929585
 H          1.3000448162       -3.5258846372        2.3293380446
 O          2.2079070239        1.7107019046        3.1238803694
 H          2.4578247489        2.4753557752        3.6684303243
 H          1.3484368405        1.3760604615        3.4523696287
 O          0.1570428336        3.7429230293       -0.7058147668
 H          0.6169997322        3.5324534790       -1.5351568656
 H          0.7157542973        3.4013207397        0.0171688151
 O         -0.5650455973       -2.4087797975       -3.5851381696
 H         -0.2909598253       -3.3093137154       -3.8619937271
 H          0.2101047127       -1.8211609466       -3.7162883154
 O          2.7447035044        1.6446853070       -4.5236473313
 H          2.1772850625        1.2886253635       -5.2253234047
 H          3.3357034639        2.3095513705       -4.9318762184
 O          6.7129538402       -0.0267254531        1.2325601826
 H          6.6226058291        0.9250721890        1.4041263333
 H          7.0460737286       -0.4094224269        2.0693178974
 O         -3.2059459797       -2.2524442282       -4.1957663777
 H         -3.5771715816       -2.8904833532       -4.8439807545
 H         -2.2393614613       -2.2404264665       -4.2877600841
 O          0.3743113318        6.2070790260       -2.6888178942
 H          0.5884711483        6.1302773253       -1.7431522513
 H         -0.0157753973        7.0832093132       -2.7958750673
 O          5.4783945672        2.2825919334        2.0886351396
 H          4.7878186780        1.5926642256        2.0532550211
 H          5.6680541213        2.4235496588        3.0300883670
 O          3.3391356040       -8.1358583367       -1.4401823885
 H          3.3409785857       -8.0872094072       -0.4662879885
 H          4.2387051387       -7.8536291745       -1.7009154913
 O          5.5725828580       -1.3817786106       -1.1040684406
 H          4.6875368776       -1.2765676666       -1.5067796462
 H          5.4171511239       -1.6815139844       -0.1880820487
 O          3.6441603841        0.6166498728        6.7516674057
 H          4.2756142787        0.0045023358        7.1556786777
 H          2.8826800618        0.0745565299        6.4419019751
 O         -3.6653897548        2.3497852265       -8.3329548121
 H         -3.4571055362        1.4209247323       -8.1133226751
 H         -2.8587054067        2.6814353335       -8.7492573186
 O         -0.6589833538       -2.9890571331       -1.0768202748
 H         -0.5525858797       -2.7249177893       -2.0197914396
 H          0.0364340875       -3.6424536508       -0.8544467997
 O          1.0199688249        3.1720962046        5.3492060951
 H          1.8961401046        3.1563318615        5.7908934029
 H          0.5189763762        3.8459329695        5.8460388334
 O          3.0691625340       -0.7050828447       -1.6927542908
 H          2.7592833613       -1.3224157230       -0.9945688253
 H          2.4912536746       -0.8213728855       -2.4689450559
 O         -5.8043544149        1.6489838609       -6.3391138537
 H         -5.1593067945        0.9865513617       -6.0184676082
 H         -5.4914449341        1.9275000840       -7.2038685833
 O          5.3831641477        6.9430203000        4.4145985754
 H          5.4509986123        6.3013421139        3.6859954386
 H          5.4051651540        6.4012961239        5.2185309291
 O         -1.2356538448        4.3024870261       -3.8591843964
 H         -0.4563618592        4.5921798259       -3.3590495355
 H         -1.6907775785        5.1297503771       -4.1048051423
 O          1.1096130461       -2.4803201718       -6.8362189460
 H          1.9139570500       -1.9690408858       -6.5918216495
 H          0.4544105365       -2.2486581304       -6.1644974619
 O          5.4651514081       -1.3503153286        7.2858479133
 H          4.9165733274       -1.9890453568        6.7797233611
 H          5.7412576640       -1.7913217756        8.0875848764
 O         -2.1065132454        1.6511297286       -5.5322169795
 H         -1.9612282485        1.3255909103       -6.4252547117
 H         -2.8843226534        1.1362356387       -5.1968886270
 O         -5.4412685432        2.0881584470        1.5814567420
 H         -5.5456007659        1.1160020218        1.7077598518
 H         -5.3544540538        2.2820776818        0.6332139099
 O         -0.8417637103        8.7138603818       -2.6602278389
 H         -0.9031362340        9.5689261381       -3.0847599953
 H         -1.6241665847        8.6593579743       -2.0193580019
 O         -7.4969024361       -0.4333015056       -5.1722143199
 H         -7.8219561930       -0.3669533229       -4.2560690149
 H         -7.1197776132        0.4193115352       -5.4161874133
 O          2.5631135763        5.8589053956        5.6509709423
 H          3.2963551681        6.1321883660        6.2064954581
 H          2.8952284684        5.0725526586        5.1615336883
 O          2.3333783661        1.6701297020       -0.8087201416
 H          2.7420259121        0.8689859239       -1.1966118678
 H          3.0286065872        2.3206084475       -0.6679583361
 O          4.2195371099       -4.1869365614       -6.9157110611
 H          4.7814737161       -3.3988742177       -6.9205003867
 H          4.6656042946       -4.8281209011       -6.3409309154
 O         -3.5282321075       -6.4595535599       -5.5230272880
 H         -3.4012767093       -6.6377845034       -4.5719286154
 H         -2.6490390932       -6.4706611183       -5.9176185035
 O          1.9465085634        3.5566231263        1.2725445672
 H          1.9606333671        2.7268869667        1.7961318689
 H          2.8309620798        3.6539802005        0.8883697678
 O         -0.2378735492        1.3147962370       -3.6494032794
 H         -0.9380766285        1.4348156266       -4.3208742960
 H          0.2249676758        2.1612574097       -3.5824900538
 O          5.0839245175        5.1392130077        2.4244333218
 H          5.9042856069        4.7491572061        2.0692863491
 H          4.4783131300        5.2973652452        1.6874827697
 O          2.7545061354        3.2110780532       -7.8323438190
 H          2.2391275793        4.0269832364       -7.8108496329
 H          3.3685404727        3.3220898247       -7.0832123567
 O         -3.0324371013        2.4519864464       -2.9057385231
 H         -3.7467429574        2.6933156858       -3.5247165845
 H         -2.3041911956        3.0583197589       -3.1210838838
 O         -4.0232860381        0.2381490873       -0.1564546167
 H         -3.6085527335        1.1215339301       -0.2350579808
 H         -3.5012051042       -0.3031896866       -0.7627469560
 O          5.3613207176        1.2679764730       -0.9062453262
 H          4.7680005839        1.1948657704       -0.1475408640
 H          5.6354986006        0.3464222671       -1.0775758898
 O          2.2632674180       -6.7263514179       -5.1906862039
 H          3.1995564148       -6.9237303404       -5.2684469059
 H          2.0329063871       -6.1335378601       -5.9359207489
 O         -3.9974685514       -3.9003006162       -6.1111414862
 H         -4.0328928550       -4.8495462623       -5.8707251064
 H         -3.2361506869       -3.8081371822       -6.7044944429
 O          4.4102142289        3.3749884592       -5.6961339443
 H          4.6181935831        4.0442756629       -5.0196086753
 H          5.1702639003        2.7602937571       -5.7223099910
 O         -3.2721500634       -3.1821999341       -1.6453442196
 H         -3.2925901457       -2.8619832524       -2.5666472068
 H         -2.3341450091       -3.3224629672       -1.4264879116
 O         -0.0412389634        0.6527625606        4.0858827858
 H         -0.6448266222        1.4109078204        4.1622855679
 H         -0.5436348394       -0.0954884291        3.7161994070
 O          0.1769281306       -2.8434387448        5.6108107777
 H         -0.3167779353       -2.5859677790        6.4139027364
 H          0.9023222184       -2.1701327780        5.5685224603
 O          2.9740645853        5.2140712656       -1.7523628900
 H          3.0724082958        5.0920102331       -0.8038192039
 H          3.0920675707        6.1653256618       -1.9317752103
 O         -0.2782053857       -4.7612996901        3.6041943464
 H         -1.2390928097       -4.5984563218        3.4860452700
 H          0.0471616334       -4.0929515946        4.2213825412
 O          2.6797694339       -3.8986570299       -4.6066831452
 H          2.8267287152       -3.9022705333       -5.5634240539
 H          1.7853878975       -4.2343965937       -4.4205122012
 O          1.3986417213        5.4146090553       -6.7332190289
 H          1.8348874731        5.8762975130       -6.0021997589
 H          0.5022222282        5.7998224830       -6.8154983411
 O          4.3395328860        3.6272247829        0.1008262538
 H          4.8565517050        3.1919668879        0.8074650418
 H          4.9811419657        4.1373457741       -0.4373585199
 O         -1.2246524051       -1.6774699486        3.5682991221
 H         -0.8994127605       -2.1530762957        4.3521355597
 H         -2.1983656797       -1.6763774949        3.5863198458
 O          2.4237164906        6.5287312948       -4.3868287753
 H          2.7120560687        7.3464379863       -3.9635316131
 H          1.6911620676        6.2144163190       -3.8131527230
 O          8.3244050778        1.9521700872        2.8352767517
 H          8.8966777314        1.7439018713        2.0594608694
 H          8.1753134905        1.1096503085        3.2760884524
 O          4.9020698984        0.1583416617       -3.8097655656
 H          4.0897419447        0.6959908675       -3.8269941592
 H          4.6368804751       -0.7718570671       -3.6783066324
 O          4.9145693016       -5.6097985533       -4.6159015388
 H          4.1321885103       -5.1023345796       -4.3331745869
 H          5.6761847904       -5.0220441382       -4.4774217296
 O         -5.1126815754       -1.2682395178       -2.3442315865
 H         -4.1714072714       -1.0393459147       -2.4495054079
 H         -5.6041670180       -0.4441067181       -2.5045816811
 O          4.0008529634        0.2252193721        1.2717909404
 H          4.8533423189       -0.2402459839        1.2453724619
 H          3.4874557451       -0.2192591385        1.9684798975
 O          5.5576913922       -6.7110856186       -2.0891009740
 H          5.2656654802       -5.8325352411       -1.7723660657
 H          5.5380900065       -6.6382846156       -3.0524277107
 O          8.4778152799       -0.8588350936       -0.6115850867
 H          7.7611294044       -0.6075403045        0.0132462193
 H          8.2117429733       -0.4500329228       -1.4527752632
 O          1.4613038597       -0.7940090768       -3.8058028555
 H          2.0525726265       -0.8112757013       -4.5804146396
 H          0.9708902253        0.0503258987       -3.8311340618
 O          1.7277147072       -0.7389997657        5.5178029050
 H          2.1619862696       -0.8902736434        4.6410713491
 H          1.0157824130       -0.1072522398        5.3102225378
 O         -2.5087775249        0.2143976170        2.0503334754
 H         -3.1945861933        0.1341116529        1.3621736857
 H         -3.0058680705        0.3905778284        2.8684727305
 O         -0.7315442940       -2.2011984494        8.0642586532
 H         -1.2658289972       -2.9703997186        8.2939899616
 H         -1.2559150727       -1.4146349827        8.3360414262
 O          0.7979965996        0.7465561332       -6.2651295122
 H          0.4475600763        1.6356435994       -6.0493540363
 H          0.9302040561        0.7763484245       -7.2323119667
 O         -5.6374268172       -2.3833170416        0.0541925688
 H         -5.7156470904       -1.6391311973        0.6829073180
 H         -5.3348928641       -1.9988295290       -0.7919435703
 O          0.1908190734       -4.8476433760       -4.0753313616
 H         -0.1201684700       -5.2586572372       -3.2346693374
 H         -0.2427420447       -5.3050684837       -4.8192174118
 O          4.4974837117       -2.4391807647       -3.4313775670
 H          5.3105547649       -2.8384713714       -3.8016205281
 H          3.7349090511       -2.8435683887       -3.8839810195
 O         -8.4878342784       -1.3075973209        0.7857469890
 H         -7.8004248061       -0.7363155367        0.3799949452
 H         -8.8020858105       -1.8831598090        0.0829180931
 O         -2.9800591865       -2.6590216548        1.0483647934
 H         -3.3995692096       -2.5248659156        0.1905147718
 H         -2.5201862468       -3.5137731155        0.9756840231
 O          0.9144671753        1.3781584267       -8.8574306876
 H          1.6852563381        1.9502476282       -8.7190213599
 H          0.1571104888        1.9923487008       -8.8742766579
 O         -9.4412644003        1.7640871778       -2.0072103532
 H         -9.2244505767        0.8231053074       -2.1147220781
 H         -9.0002446526        2.0670042344       -1.1963593152
 O         -1.0128780237        4.5619689350        1.8541663219
 H         -0.2272055405        4.8083832622        2.3782501968
 H         -1.7509103845        4.5417531017        2.4640907190
 O          4.9008633283       -2.4460807410        1.2647160467
 H          4.9370431261       -2.2990013521        2.2339479390
 H          3.9619724719       -2.5067849685        1.0078661056
 O         -2.8761320697       -4.5391157025        3.5965613970
 H         -2.9735275553       -5.4482827598        3.9521536826
 H         -3.5406267349       -4.4514508108        2.8898473108
 O         -4.1650173591       -5.7657576912        6.4745435049
 H         -4.6312300591       -5.1248455250        5.9102357253
 H         -3.7991815463       -6.4269630713        5.8701952109
 O         -6.2613338565        4.6421573023       -2.6164404102
 H         -7.1570538119        4.3318991736       -2.7904490464
 H         -5.7541331048        4.2751965445       -3.3785333437
 O         -2.4746167506        2.3946281937       -0.1697948841
 H         -2.5495074476        2.6593608079        0.7685758974
 H         -1.5622603709        2.0787483070       -0.3205996766
 O         -2.3967038448       -0.1203104835        6.0150420975
 H         -1.4890971872        0.2394284288        6.0240057491
 H         -2.3539133510       -1.0698669244        5.8238237769
 O          2.3702578198       -5.9334934823       -2.5382131240
 H          2.6783164543       -6.7742270922       -2.1339883014
 H          2.1856705725       -6.1321991200       -3.4694088414
 O          6.7677786827       -3.6715038897       -4.1434040760
 H          7.2859723963       -3.0009629872       -4.6104685437
 H          7.1013842900       -3.6555939291       -3.2183872452
 O         -3.3927595825        2.6783615143        6.6278270926
 H         -4.0419626790        1.9852096517        6.8441374917
 H         -3.8820605502        3.3974179378        6.1851328494
 O         -2.2599305039       -4.5106311099        7.7733791532
 H         -1.4334109711       -4.9784120874        7.5725566508
 H         -2.9884107793       -5.0790323972        7.4198806666
 O          4.2594328618        0.7470362173       -7.5536836161
 H          5.0206882253        1.0699476841       -7.0494633219
 H          3.8026396283        1.5246594407       -7.8891834163
 O          5.6162954867       -1.7944864810       -6.5194782543
 H          6.4089852242       -1.5763095955       -5.9940822663
 H          5.5562950157       -1.1334972977       -7.2140097724
 O          3.7265211961       -4.9633185345        1.0406898752
 H          3.5614045358       -5.9250156360        1.0073276278
 H          3.9861657514       -4.6788655883        0.1462395259
 O          6.7560951713       -4.3078264097        0.7484115962
 H          6.0118905402       -3.7031359195        0.9620606194
 H          7.0011755413       -4.0942860219       -0.1712784014
 O          7.8650556549       -1.3132890661       -5.0524153669
 H          8.6635618243       -1.0142972588       -5.4846088862
 H          7.7399782430       -0.7366000435       -4.2523826559
 O         -6.4215310043        5.0106129902        0.3361209270
 H         -6.5851242556        5.4867360332       -0.4790106977
 H         -5.4626187679        5.1277254833        0.5388714055
 O          0.4206400724        6.2041162378        0.0431253204
 H          0.3247507392        5.2218294765       -0.0721943660
 H         -0.4210666920        6.4867442882        0.4671274853
 O         -1.7317119887        2.7117231660        4.5273959523
 H         -2.3144096197        2.4929165335        5.2801169474
 H         -1.5517131239        3.6610018383        4.6106697542
 O         -0.8461101393       -8.1732881069        0.5173641895
 H         -0.3381986374       -7.4716363242        0.9768468606
 H         -0.2749849910       -8.4129228420       -0.2290608801
 O         -2.4051028839        4.7666210748       -1.1997976266
 H         -2.4255526795        3.8065300322       -0.9509907504
 H         -1.4694075493        4.9829517674       -1.1614612597
 O         -3.0200998943        4.0369414141       -6.3128268133
 H         -2.5225351674        3.3023648050       -5.8927662877
 H         -3.4055149140        3.6279170690       -7.1087771017
 O         -8.0129062107       -5.2936169290        0.6211454111
 H         -8.1330882019       -4.6655353450       -0.1085925627
 H         -8.0762921454       -4.7619360622        1.4281455780
 O         -2.6894506668       -2.8323158256        5.7057570755
 H         -2.8306589327       -3.4398016175        4.9548606242
 H         -2.5411985603       -3.3964755060        6.4877489789
 O         -2.9750062944       -8.7986638841       -1.0910927865
 H         -2.2060636230       -8.5868591751       -0.5327110045
 H         -2.9389855482       -9.7368377747       -1.2709238600
 O         -5.0080355135       -1.5518386964       -7.1780813223
 H         -4.8662208172       -2.3997476239       -6.7236872480
 H         -5.8063454638       -1.1819404073       -6.7934419758
 O         -2.2476288923        6.8237331060       -4.2672302471
 H         -1.7331417942        7.5068925712       -3.8155553204
 H         -3.0707185128        6.7385765891       -3.7509213393
 O          3.0928751490       -5.1897965502        4.7558906437
 H          3.9965381373       -5.2204472207        4.3893261705
 H          2.6052794314       -4.6393667360        4.1024924953
 O         -6.7383578328        0.3188681266       -0.4785981306
 H         -5.7709642945        0.3023870337       -0.3366913298
 H         -7.0627500454        1.2097225536       -0.2492178063
 O         -3.8513518438        5.2848581065        0.9793872275
 H         -3.3512591166        5.1077103834        0.1530368319
 H         -3.6513611961        4.5220976239        1.5579247261
 O         -1.7673841112        5.4326721962        4.8015529534
 H         -1.2989504006        5.4782183846        5.6464465549
 H         -1.4325428689        6.1899336018        4.2946062683
 O          1.1725790346        5.0429868167        3.2874486512
 H          1.6381766547        4.6058878002        2.5387334251
 H          1.1360408219        4.3768112543        3.9952195475
 O          5.2618182877        4.9033583397        6.3543039217
 H          5.8172526672        4.2739663924        5.8696328232
 H          4.5504620627        4.3614792539        6.7327200305
 O          6.1820674901       -6.9786872444        0.6971321188
 H          6.4044929228       -6.0312922405        0.7924089525
 H          6.2446809629       -7.1534111362       -0.2480521299
 O         -5.8854423301        1.1671841273       -3.0726060411
 H         -6.6117680001        1.6927589585       -3.4540233554
 H         -5.5955524270        1.6666252892       -2.2822067001
 O         -3.1855889401        3.0886570150        2.3502152753
 H         -2.7612841949        2.7879512439        3.1817280183
 H         -4.0110732296        2.5704045192        2.2577957384
 O         -1.2262897834        6.0403798768       -6.7499714663
 H         -1.4971076595        6.6014731681       -6.0138275291
 H         -1.8616489148        5.2999191996       -6.7039530028
 O          1.1678968498        8.6979460495       -0.6517107805
 H          0.9211104547        7.8131273449       -0.3271568388
 H          0.4676646040        8.9391475010       -1.2744389731
 O          6.9586985420        0.5236209127        5.7936452726
 H          6.4585041250       -0.0801309942        6.3582889098
 H          7.3073222192       -0.0194528717        5.0724640875
 O         -2.8690721675       -7.0755702861        4.4102409541
 H         -3.0078845144       -7.3297827377        3.4826657319
 H         -1.9299616730       -7.2616694143        4.6142478282
 O         -3.1125250409       -7.0618826514        1.6947477891
 H         -3.9778393283       -7.0876516476        1.2575247245
 H         -2.5419513388       -7.7197710791        1.2768386551
 O          6.3021046154        2.8626918022        4.7098991886
 H          7.1706203939        3.0178892162        4.3279105761
 H          6.3980980159        1.9947878148        5.1658586235
 O         -2.8137958421       -0.1287587059       -7.6149199117
 H         -2.2080392960       -0.5502813356       -8.2453270019
 H         -3.6225185969       -0.6854924243       -7.5234560780
 O          7.4287706971        0.2258491491       -2.9540047420
 H          7.5247301658        1.1887278909       -3.1140501316
 H          6.4615627712        0.0928174955       -2.9841223590
 O         -8.1960259294       -0.6720809154       -2.4917015329
 H         -7.5527871991       -0.2900837954       -1.8604704515
 H         -8.2714017964       -1.6033310364       -2.2309115953
 O         -3.9702522891       -1.8685584016        3.3771008667
 H         -4.4260544491       -2.6012359343        3.8137137635
 H         -3.6643912681       -2.1950216649        2.5030697667
 O         -2.8396568550        8.4884412322       -1.0772484591
 H         -3.4431359589        7.8330412051       -1.4644888959
 H         -2.5142450205        8.1093439609       -0.2380961374
 O          7.6051246698       -1.0137079083        3.5492682879
 H          8.1676190727       -1.6712193973        3.0905780459
 H          6.7582488689       -1.4739181392        3.7347299436
 O         -4.0041407543        0.9645238274        4.0902673515
 H         -3.5773773251        0.5795227108        4.8699558554
 H         -4.9196477914        1.1883469871        4.3246849559
 O          1.1407816119        9.1829848218        2.2490080845
 H          1.2472503352        9.1900879174        1.2898009244
 H          1.9372057850        8.7821903154        2.6314440074
 O          3.1252912986        3.2195665169        7.0016942505
 H          3.3991965512        2.2817393069        7.0121877703
 H          2.5313266763        3.3314015753        7.7596930411
 O          4.5128810355        2.9377472176       -2.8574394166
 H          4.7242256685        2.3060937345       -2.1462315560
 H          4.1256473850        3.7188440300       -2.4477346866
 O         -4.8982072969        3.4835233785       -4.5598881267
 H         -5.4095479989        2.8661723063       -5.1187284976
 H         -4.2731637851        3.9305237967       -5.1679765711
 O          5.9117181467        5.2113973229       -1.3593352040
 H          5.7243875618        6.0784042763       -0.9694708283
 H          5.6295847369        5.2520281041       -2.2855388323
 O          7.5861444925        2.7870136635       -0.8272068775
 H          7.4187450367        3.5151857135       -0.2130054618
 H          6.7847595566        2.2226015094       -0.8005720998
 O          4.9033427453        5.5054790081       -4.0266257898
 H          5.4360184751        6.1250811491       -4.5238246376
 H          3.9705622002        5.8036692368       -4.1025982579
 O          1.4116355224        3.4828234014       -3.1153880335
 H          2.0231265636        2.8158708253       -3.4901952294
 H          1.9850842060        4.1724553099       -2.7445440320
 O         -7.9012715535        2.6750583166        0.1308664422
 H         -7.3515914229        3.4791840726        0.1434518840
 H         -8.2911173270        2.6166473749        1.0162697760
 O          4.9882055471        7.4897875734       -0.0685210301
 H          5.4736061662        7.9406859146        0.6214827384
 H          4.2042693903        7.0726651461        0.3664475311
 O         -1.0061937875        3.2625572858       -8.3873224693
 H         -0.7022973187        3.2692351101       -7.4454536715
 H         -0.8935101937        4.1633575050       -8.6934621823
 O         -0.4619494413       -1.1437426276       -8.7378185000
 H         -0.0048683878       -0.3636584048       -9.0714364502
 H          0.1877173359       -1.5957360472       -8.1694959197
 O          4.3012684331       -4.3619298540       -1.5262653238
 H          3.5331824432       -4.8036568273       -1.9374062884
 H          4.4300941158       -3.5324622967       -2.0200766616
 O          8.7143830750       -2.6778636626        1.7776625654
 H          8.0640147290       -3.3490394279        1.4950351334
 H          8.9134161209       -2.1490013950        0.9988608089
 O         -4.1307330842        6.4150782343       -2.3769851090
 H         -3.5269975328        5.7470562740       -1.9913019287
 H         -4.9841978842        5.9781848431       -2.4863966178
 O         -5.9849234232       -2.5626489052       -4.5251372238
 H         -5.5758689731       -2.1600660781       -3.7311064848
 H         -6.6291951224       -1.9060735122       -4.8428461390
 O          0.5502622567       -8.2576969121       -1.7952262886
 H          1.4993042962       -8.4222100351       -1.7228500468
 H          0.3144185143       -8.3740709800       -2.7346231827
 O         -4.8424474330       -5.2654030510       -1.7234080887
 H         -5.5984971947       -5.0557572516       -2.3042238379
 H         -4.3091139994       -4.4376397477       -1.6319667452
 O         -1.6078546190       -3.3693022545       -7.2717435657
 H         -1.3904654860       -3.0760542574       -8.1593349631
 H         -1.4138010514       -2.6081301843       -6.6860197457
 O          1.6570906152       -5.0824057312       -7.2614466094
 H          1.3397601944       -4.1621849684       -7.1375832883
 H          2.5504528491       -4.9752817318       -7.6099729813
 O         -3.0481852601       -6.7898405899       -2.8743516850
 H         -3.7601667647       -6.2312673930       -2.4772540061
 H         -3.0912442804       -7.6275854326       -2.3780331039
 O         -6.9048129328       -4.6379933553       -3.3285815604
 H         -6.5536219313       -3.8745846768       -3.8790704808
 H         -7.2313782648       -5.2954975919       -3.9402586734
 O          3.1136806165       -1.0322238983       -5.9305086306
 H          3.9656331727       -1.4938377516       -5.8522939815
 H          3.3181159049       -0.2877395252       -6.5309834358
 O         -1.6615438714       -4.9735476704        0.7092594763
 H         -1.3617451003       -5.2697633593       -0.1677900910
 H         -2.1608932228       -5.7072503772        1.1093199594
 O          6.2473120323        1.4043562510       -5.7050807127
 H          5.7743465643        0.8571120853       -5.0295473307
 H          6.8982600942        1.9035625082       -5.1968103231
 O         -7.5317532770       -3.2287105804        2.4680942038
 H         -7.8394600014       -2.5188270990        1.8692093052
 H         -6.6295683693       -3.4682260931        2.1902457506
 O         -8.6452143775        2.7462457291        2.7996497114
 H         -7.8287900559        3.2351557746        3.0522699901
 H         -9.3627458148        3.0979109735        3.3245952491
 O          5.0926293054       -1.8289984808        3.8449444590
 H          4.6161335219       -2.3104726595        4.5333510626
 H          4.8160829906       -0.8806975156        3.9392595043
 O         -0.8703029305       -5.8252408542       -6.3489535208
 H         -0.0717834439       -5.9965997330       -6.8620375814
 H         -1.1939783664       -4.9678976174       -6.6887612858
 O          0.0169094949       -8.1085623218       -4.4281503372
 H          0.8376931065       -7.7089556518       -4.7596081058
 H         -0.7031896594       -7.7060392834       -4.9166051371
 O          3.2602389173        7.9010159991       -2.1504736572
 H          2.5292814685        8.2983281754       -1.6324253445
 H          4.0427283194        7.9873664139       -1.5883458515
 O         -7.9199905097        2.7524377312       -3.8782683655
 H         -8.5786592903        2.4268354666       -3.2063783655
 H         -8.3351240908        2.6673337443       -4.7354701314
 O         -0.4146079156        7.2822935800        3.3045675828
 H          0.0491927622        8.1092559819        3.0605915251
 H          0.2756449135        6.5949563190        3.3000679807
 O         -1.0904761456       -1.1222560102       -5.7981315850
 H         -1.8496842191       -0.7374604246       -6.2677555466
 H         -0.3808815988       -0.4502863595       -5.8783727370
 O         -5.0272138061       -1.6143789249        6.4063701066
 H         -4.2460046640       -2.0028514559        5.9664195988
 H         -5.7878800044       -1.7207196239        5.8063395334
 O         -5.3518711811       -4.0175784428        4.6893610735
 H         -6.1718767090       -3.6182894161        4.9954917547
 H         -5.5269083933       -4.4046346794        3.8223477623
 O         -5.0681634061        2.7596242836       -1.0821637448
 H         -5.5240805020        3.5367736275       -1.4530075652
 H         -4.1714542766        2.7475896148       -1.4617886253
 O          7.4608103875        4.1939836543        1.5574548322
 H          7.6278342714        3.3459347484        2.0170011375
 H          8.2460530404        4.7261740352        1.6793601493
 O         -0.8163306811       -5.8780956652       -1.8194518128
 H         -1.6635389121       -6.1822571300       -2.2208137980
 H         -0.2852392586       -6.6839731559       -1.6918880118
 O         -2.4258488963       -0.2280669551        8.6725298172
 H         -2.5818679862       -0.0829411345        7.7104264886
 H         -3.0910395637       -0.8924311813        8.9389699082
 O         -1.6000611329        2.4066772042        8.5763290846
 H         -1.9362968028        1.5728747211        8.9390115606
 H         -2.2859858728        2.7068646623        7.9471891082
 O          1.3536133007        0.3480229804        8.7849797641
 H          0.6800416101        0.0239413231        9.3845163190
 H          0.8961633189        0.5149799100        7.9269382439
 O          0.7600792781       -6.2778721689        1.5971643983
 H          0.3192866673       -5.6600738474        2.2053855566
 H          1.4015637541       -6.7626500374        2.1544497980
 O         -5.0422165785       -4.2819982019        1.9237211338
 H         -5.2066181356       -5.1505392750        1.4834241007
 H         -4.9653191762       -3.6374738801        1.1959713696
 O         -4.4861786851        4.5647510776        5.0647521132
 H         -5.0281529609        4.5203542056        4.2617045260
 H         -3.6594333720        5.0154361909        4.8436702179
 O         -6.3952690707        1.8804842912        4.9935742365
 H         -6.2343372488        2.8270327117        4.9783472505
 H         -6.2142126081        1.5732539753        5.8939720270
 O         -0.2024559674       -7.0800115195        4.8904677503
 H         -0.1806047684       -6.2558177924        4.3496595874
 H         -0.0205437286       -6.7654975533        5.7857864974
 O         -8.1744131687        0.0624493195        3.1624132936
 H         -8.3047683240        1.0237644558        3.1133669623
 H         -8.6693775059       -0.3345575586        2.4348908398
 O          1.0881828407        3.1303953559        8.8539064986
 H          0.1216254917        3.0831094931        8.8853717613
 H          1.3782441097        2.2196302080        9.0323641741
 O          0.1921133467        5.2540233551        6.8042668786
 H          0.4007749834        4.9685626100        7.6978889640
 H          1.0125839292        5.6490160418        6.4387309663
 O         -5.7965731952       -0.4822032644        2.0437980119
 H         -5.1296080243       -0.8240082474        2.6751929254
 H         -6.6258167214       -0.3452883638        2.5442337885
 O          2.0431937688       -2.2503943861        8.0826698496
 H          2.1558774238       -1.3195160494        8.3296200549
 H          1.0827897690       -2.3780716404        8.0994225959
 O          3.6701756100       -2.8597218518        6.0173273235
 H          3.0013934857       -2.6295757484        6.6930687172
 H          3.4787508533       -3.7714531982        5.7304057397
 O          2.2106295076       -7.4434589857        3.5497903837
 H          2.5893491137       -6.6935387112        4.0578037945
 H          1.4100253673       -7.6909776031        4.0361823181
 O          7.1363113929        2.8542285545       -3.5019902401
 H          7.5113646196        3.1233732982       -2.6475110591
 H          6.1672632513        2.9593293906       -3.3693687681
 O         -7.8878816490       -3.1765567638       -1.2496729380
 H         -7.0538288140       -2.9453369086       -0.7848665978
 H         -7.6271046687       -3.7342592291       -2.0015760751
 O          3.6495577450       -7.6207899051        1.1748437792
 H          4.6305283569       -7.5403051317        1.1767277414
 H          3.3532515175       -7.8385919058        2.0674047164
 O          2.9495261991        7.4657006862        3.4437424867
 H          3.8698122699        7.4916975893        3.7848204959
 H          2.4858563288        6.9146231704        4.0985905731
 O         -0.0080632802       -2.8731976243        1.5505404061
 H         -0.5067733015       -2.4045857052        2.2481800742
 H         -0.5384064925       -3.6361134295        1.2832126364
 O         -5.5623087430       -6.4498752491        0.5520313127
 H         -6.5265580213       -6.2944957575        0.5817696069
 H         -5.2839106221       -6.1171400864       -0.3280902137
 O         -4.0659825769       -2.3503117461        8.8501842359
 H         -4.5781531737       -2.2039758594        8.0356230230
 H         -3.6393159190       -3.2061749525        8.7478567937
 O         -1.8575708712        7.1644619179        1.0615420253
 H         -2.5836667684        6.5276469849        1.1901916053
 H         -1.4528330484        7.3108857200        1.9417923401
 O          5.3032824047       -4.9827782709        3.2753117453
 H          4.8366773429       -4.9110211730        2.4209528885
 H          6.2046076597       -5.2290238683        3.0723849329
 O          2.9417187116        6.2720744884        1.0821488955
 H          2.0187022998        6.2300035407        0.7733118536
 H          2.9033968201        6.6825748903        1.9785974533
 O         -5.2642804091        0.8388944163        7.2878113213
 H         -5.4898842558        0.7206468149        8.2098253812
 H         -5.1063549451       -0.0693579752        6.9236721807
 O          0.3117366904       -5.2396642262        6.9305856352
 H          1.0959702098       -5.2725170006        7.4781606910
 H          0.3967646529       -4.4320932870        6.3841979091
 O         -0.1155680406        1.1503121963        6.7229675872
 H         -0.6513875948        1.6612979603        7.3628927756
 H          0.2876163280        1.8114059798        6.1214740960
 O         -7.1695487131       -1.8994186518        4.7742103959
 H         -7.3906217199       -2.4050202104        3.9624366884
 H         -7.5462456371       -1.0263331210        4.6083325519
 O          9.5308089556        1.4585512950        0.5199154014
 H          8.9381145782        1.9908090076       -0.0473562689
 H          9.4387705579        0.5520472701        0.1887430324
 O         -6.3367057755        4.1045581266        3.0150165384
 H         -5.9647181117        3.3185198202        2.5492894903
 H         -6.4830036804        4.7514870899        2.3158448842
