  534
       -906.52588455
 O         -3.5495146115       -6.8666623770        1.0732515148
 H         -2.9083743195       -7.1910142981        1.7132629371
 H         -3.1489528775       -7.0232858006        0.1992519214
 O          1.5472259879        5.3666988488        3.6113194840
 H          1.7486913491        5.8695749408        2.8050193619
 H          0.5835452770        5.5002033278        3.7197879111
 O          1.5121777942       -5.0427899060       -5.5633266265
 H          1.1646236868       -5.0496980737       -6.4557056281
 H          2.3496482486       -4.5397531625       -5.5660769752
 O          0.5367657595       -4.8243037627        3.2321306736
 H         -0.1198796306       -4.7161381658        3.9429868445
 H          1.0288327506       -3.9927325270        3.2232851977
 O         -3.5631529229        3.4488948748        1.5396079613
 H         -4.1927695511        3.4203117597        0.7944553875
 H         -2.7961474811        2.9148206685        1.2411599662
 O          0.3805077011       -2.1279507420        6.2640133457
 H          0.9540146930       -1.4154315837        5.9284561439
 H         -0.2561288931       -1.6951769333        6.8654562446
 O          5.4643509409       -4.0859961078        0.2203302092
 H          5.1224522640       -3.4571277037        0.8972194471
 H          5.6493482867       -4.9036245415        0.7162162980
 O         -2.5084496193       -1.4187007629       -2.0118297608
 H         -1.7502294516       -1.9610463503       -1.7155760618
 H         -2.6707173006       -1.6982864767       -2.9282655580
 O          0.5494251439       -2.1694384692       -6.0673231713
 H          1.4511680500       -1.8036536088       -6.0808466939
 H          0.0086410855       -1.5570317221       -6.5804438657
 O         -2.5644524803       -3.9150083033       -0.6743779637
 H         -2.3023804760       -4.3560288997        0.1467176678
 H         -2.1990714701       -4.4161945441       -1.4149951090
 O         -3.1211088963        1.7522159807        5.8936583937
 H         -3.5675217011        2.3164620887        5.2373951701
 H         -2.9976715632        0.8863795876        5.4732334120
 O          4.5926710582        2.1454900827       -4.9330602638
 H          5.4734834598        2.4696162878       -4.6561664028
 H          4.0071882890        2.9176382279       -4.8732846296
 O         -0.3036947526       -3.7382565713       -3.9216773655
 H         -1.0557452270       -4.2685954629       -3.5989043735
 H          0.1151068695       -4.2285736946       -4.6466541786
 O          3.4755035218        0.9923229839        0.1269277453
 H          3.9836766730        1.6414188888        0.6453894854
 H          3.3678174648        1.3909627769       -0.7541763906
 O          0.1242752316       -0.9739882030       -3.6028669418
 H          0.2534543827       -1.5364903887       -4.3905579046
 H          0.0722454429       -1.5679774720       -2.8354908432
 O          1.7355688149        2.9142385621        0.8166747233
 H          0.9288115716        3.4789536232        0.8396886844
 H          2.0053280643        2.7773400936        1.7460789802
 O          1.3718126254        4.1773457107        6.1541064216
 H          1.5282501726        4.7489713146        5.3931571786
 H          0.4119276586        4.0094404961        6.1540303439
 O         -1.3247564812        3.7905643345        5.8909442288
 H         -1.9316782014        4.4960287830        6.1325366820
 H         -1.7423702352        2.9520324601        6.1592177618
 O          1.2380281128        6.5429009552        1.1328674513
 H          0.5834860248        7.2479745866        1.1452811073
 H          0.6983021809        5.7361379041        1.0051624616
 O         -3.1454720806       -3.1932252753        6.8279775264
 H         -2.4270696322       -3.6927795063        6.3993216069
 H         -2.7461050960       -2.7115316730        7.5562608957
 O          2.9398770176       -4.3642819656       -0.5659032996
 H          2.7045393693       -4.0960655337       -1.4806208098
 H          3.9087608580       -4.2334844956       -0.4664888216
 O         -0.3948327686       -2.6157380396        1.2599681858
 H          0.4156673601       -2.5149597124        1.7718164600
 H         -0.7776415745       -3.4952886996        1.4608152139
 O          2.6480534142       -0.0102944486        2.5989973174
 H          3.6126644022       -0.1350090914        2.6757401871
 H          2.5376108063        0.3419934882        1.7068176749
 O         -0.6899778238       -0.9851834303        3.8322138917
 H         -0.3047099514       -0.1089316626        4.0083843893
 H          0.0656848512       -1.5785670250        3.6998063856
 O         -1.6626350217        1.0044594604       -4.0605809972
 H         -1.0937691761        0.2167644320       -3.9723506608
 H         -1.4927020133        1.4240067011       -4.9289381485
 O         -1.5970342106       -0.7598959111        7.5551900117
 H         -2.1118838353       -0.7049966944        6.7239969097
 H         -1.0632325764        0.0570175636        7.5522260341
 O         -4.4931570073        0.8478712096        0.6614103651
 H         -4.6151900913       -0.1095412940        0.5478715065
 H         -5.3645876155        1.2413267434        0.8546096210
 O         -1.3846664237        3.0778515788        3.2676166335
 H         -2.1316887084        2.4543664510        3.2264535418
 H         -1.4611542452        3.5960993210        4.0896778754
 O          2.3903065712        2.8497707486        3.3766006547
 H          3.2859618295        2.6916622926        3.7041959767
 H          2.1502200941        3.7923304145        3.5209728047
 O         -4.1705382742        0.2163336443       -4.3477404458
 H         -4.1521185474       -0.7111630250       -4.0657280330
 H         -3.2800224872        0.5763511897       -4.1290025392
 O         -6.7474416712        2.0685013397        1.3321661051
 H         -6.6631964297        2.9422397662        1.7500584302
 H         -7.3140325119        1.5254613066        1.9108005671
 O         -3.2448711982        1.0412275079        3.0130205351
 H         -2.8815242592        0.1394228637        3.0230441748
 H         -3.6565726107        1.1125189012        2.1209549086
 O          5.3658842488        3.2866570914       -1.5105429929
 H          4.6520841154        2.7388012216       -1.8872714263
 H          4.8782624034        3.9805020624       -1.0294515933
 O         -1.2339209115        7.3807898891        0.1573102967
 H         -0.8322590147        7.0001034586       -0.6539935409
 H         -1.8740257251        8.0201763968       -0.1586492425
 O          3.0302736491        7.5262979373       -0.6661479466
 H          3.7371708369        7.6770451376       -0.0337691720
 H          2.3130304386        7.1318704240       -0.1315045521
 O          9.9155696915        3.2645181570       -1.8908352791
 H          9.1293431930        2.9766029008       -1.3745660200
 H         10.6538681617        3.2435274925       -1.2825271525
 O          7.7229259693       -4.3735105922        2.6800095630
 H          8.5026401975       -3.8083028875        2.7638876101
 H          7.7639987581       -4.7254615183        1.7763760013
 O         -3.1514033666        1.1794428274       -1.6063930678
 H         -3.8406971919        1.0964833471       -0.9206221763
 H         -2.9186600729        0.2669089041       -1.8588793394
 O         -6.6862735005        2.9119264041       -5.1577348181
 H         -5.8174594883        3.1624192262       -5.5541509057
 H         -6.8399920572        1.9910046446       -5.4495586561
 O         -0.6107346718        2.7397766904       -2.3330441593
 H         -1.1224447029        2.1981271397       -2.9707585545
 H         -1.2446405249        3.3060097013       -1.8472410315
 O         -4.9752294070       -4.1611424354       -1.6078293147
 H         -5.0661552313       -5.1149457068       -1.8147298821
 H         -4.0949484296       -4.0631778162       -1.1736093754
 O         -2.3229371401       -2.0557340577       -4.6870282082
 H         -2.9482600859       -2.6611085140       -5.1329122934
 H         -1.5419859303       -2.5985999082       -4.4687824802
 O          3.2996966980        4.5672286178       -4.7248449114
 H          3.6435170047        5.1398882385       -5.4096730405
 H          3.5126479109        5.0100311162       -3.8701852563
 O         -3.8884310720       -3.7365290882       -6.0919888533
 H         -4.6526471586       -3.2122656285       -6.3650677560
 H         -4.2827186832       -4.4374640549       -5.5461247964
 O          3.0534510316        2.2359717963       -2.2400203870
 H          2.5823286019        3.0832983693       -2.1623772841
 H          2.7112244305        1.8052301922       -3.0401537155
 O          6.3188749529       -3.4193971701       -5.7318590545
 H          6.8348619517       -3.3391828022       -4.9161308323
 H          6.5039906954       -2.6235951301       -6.2375937042
 O          3.2623443258       -5.2016804878        3.2816718887
 H          2.5768161069       -5.8713166862        3.1086975816
 H          3.0636288802       -4.8322126578        4.1549017940
 O         -4.8256716906       -2.2623094212       -3.4376972042
 H         -4.8732477476       -3.0249687002       -2.8199406589
 H         -5.3353563741       -2.4985725089       -4.2302400402
 O          6.0550869601       -2.6415716462        4.0188260046
 H          6.6358900870       -3.3525392804        3.7069968681
 H          5.3790209043       -2.5564575886        3.3170890950
 O         -5.7946033896        2.2360279797       -2.7010334689
 H         -5.6258027581        1.2724570961       -2.6319918527
 H         -6.0807168532        2.4524405132       -3.6084095881
 O          6.4968354812        4.8636112505        0.6161722889
 H          7.3171015585        4.8548835545        1.1407550734
 H          5.8796494897        5.5080581050        1.0423373046
 O          4.5241435737       -1.6595421911        6.0546662557
 H          5.0769927560       -1.9959707812        5.3287849407
 H          3.7526499661       -1.1866100597        5.6685123415
 O         -2.1778688337        4.4781016261       -0.9794472729
 H         -3.0751466372        4.1076426629       -0.8938885166
 H         -2.3200099185        5.3735011629       -1.3602961104
 O         -7.5722493197       -3.2194107064        3.4938942850
 H         -6.9621499964       -3.5517199197        4.1681744110
 H         -7.5732842679       -3.8900370069        2.7689802404
 O         -1.0836313156        5.9423549576        3.7827244248
 H         -1.6234638280        6.0105644920        2.9798899783
 H         -1.7188385871        5.9429125352        4.5127962164
 O         -3.3492232057        5.6580736587        5.3574745089
 H         -3.9499923606        6.3705650232        5.1306629108
 H         -3.7108595414        4.8658760593        4.9078539166
 O          7.2803317098        3.5361465333        3.9866124950
 H          7.2875523167        2.8071068413        3.3254158082
 H          7.8636391573        4.1974106355        3.5894735820
 O          4.9222330265        2.8078230310        1.5149681205
 H          5.3672633700        3.4830663517        0.9700374244
 H          4.6465718000        3.2755822631        2.3141306336
 O          7.9268228463       -0.7827216795        1.3801525213
 H          8.4512960899       -1.3789932481        1.9414664009
 H          7.6089570387       -1.3563472392        0.6375086717
 O         -4.7321228802        5.4609694778       -3.6730977837
 H         -5.6968554777        5.4746978788       -3.5752224911
 H         -4.5458443856        5.4400059427       -4.6137974579
 O         -7.4281904018        5.0678972020       -3.5227447963
 H         -7.2713438457        4.3472269200       -4.1506284816
 H         -8.2798582378        4.8624341871       -3.0895257349
 O         -2.6338593931       -4.9544952430       -3.2911604255
 H         -2.3452668327       -5.7368401560       -3.8054014112
 H         -3.5507489471       -4.7952081000       -3.5423292763
 O        -10.3237419122        1.1730553470       -0.7232988919
 H        -10.2275997350        0.2134121938       -0.5434487548
 H         -9.4515364977        1.4636104779       -1.0466325006
 O          9.9156554675       -3.8497048361       -0.1934184119
 H         10.4255252036       -4.0042512109       -0.9884213450
 H          9.3721984344       -4.6491745904       -0.0298136974
 O          6.6881625526        6.1522498351       -1.6834595979
 H          6.8015911889        7.0579918957       -1.3968895645
 H          6.6423258944        5.5936651013       -0.8682990168
 O          1.4914825656        4.4096907043       -1.9977387247
 H          0.7257810144        3.8427223439       -2.1868150594
 H          1.1282112567        5.3087599958       -2.0050347228
 O          4.0696673472        5.9298246456       -2.6050071335
 H          3.6479264128        6.5863843297       -2.0203946807
 H          5.0178997942        5.9480255272       -2.4018444030
 O         -1.7783718145       -4.8129877190        1.7723876714
 H         -1.4539004393       -5.6787067930        2.0807612727
 H         -2.3565563326       -4.4626221804        2.4651961322
 O          4.5676534301        6.3291674482        1.6290597974
 H          4.5069264541        5.8856021164        2.4879976659
 H          3.9917602341        5.8065173723        1.0266951104
 O          4.1629974181       -2.8443567082        2.1469217774
 H          3.4987916917       -2.3646556619        1.6026163640
 H          3.7271953984       -3.6389685881        2.4970715048
 O         -4.7659334828        3.7106167013       -0.7627571944
 H         -5.4643227040        4.3946996235       -0.7263688048
 H         -5.0614431185        3.0832381901       -1.4459851610
 O          5.2956395982       -0.1519700524        2.5486577988
 H          5.3486017779       -0.5819184803        1.6689873336
 H          6.1321518764       -0.3481650245        3.0034944297
 O         -2.6974513519       -1.4223519346        2.0518634677
 H         -1.8328929375       -1.7741601690        1.7697169815
 H         -3.3158094633       -1.5313241393        1.2942795511
 O         -9.4468840325        4.2127855812       -1.9832573875
 H         -9.8498216392        4.7163085851       -1.2745373150
 H         -8.8816796298        3.5335820951       -1.5380823953
 O         -1.4996927884       -0.4341174383       -6.6612216268
 H         -1.8477809261       -0.9564153182       -5.9039157997
 H         -2.2505190810        0.0659448882       -7.0065813041
 O          2.1871145476       -3.3008240687       -2.8838627673
 H          2.7720667276       -3.4727412607       -3.6381244824
 H          1.2742351838       -3.4670333183       -3.1840514574
 O          7.9382995748        1.6204275750        5.8632125208
 H          7.6846360275        2.3968086175        5.3312815773
 H          7.2081601067        1.4591629441        6.4744562417
 O          7.3458183331       -0.6399321520       -5.1493881578
 H          7.4288193037       -1.3254297553       -4.4674043480
 H          7.9716624656        0.0529279276       -4.9171533345
 O         -6.2263353877       -7.2020936117        0.2789663386
 H         -6.7576177637       -6.4870542360        0.6654133882
 H         -5.3923921608       -7.2191421976        0.7687642576
 O          7.3711092955       -5.2938503245       -2.2879099267
 H          7.5847235427       -4.4197829118       -2.6620576202
 H          6.4247528313       -5.4195557193       -2.4859094177
 O         -4.2263255974        0.4200773566        7.9776396041
 H         -3.4465068900       -0.0716225801        8.2631607811
 H         -3.8814762104        1.0693599500        7.3333440529
 O         -4.0256045996        0.6804539701       -6.9412472613
 H         -4.0970692600        0.4153764199       -5.9906557955
 H         -4.8031883459        0.3392382957       -7.3818424121
 O         -7.3700600332       -3.3654052209       -0.9141787882
 H         -7.3067864573       -2.4742363431       -0.5161584891
 H         -6.4446633013       -3.6569328733       -1.0636672275
 O         -5.7756406764       -1.4990759708        2.3953721876
 H         -6.4041489716       -2.1195002532        2.8042216264
 H         -5.7550829607       -0.7161008030        2.9729909286
 O         -6.3151338619       -2.4287604020       -5.7402039970
 H         -6.5564895046       -1.4865219746       -5.7965911752
 H         -6.9912476126       -2.8508073105       -5.1880310271
 O         -2.4136979098       -7.2261635733       -1.3952803731
 H         -1.7450153775       -6.5117695430       -1.5376710719
 H         -2.0997230757       -7.9871576603       -1.8828383423
 O          2.5033998030       -0.7738553251       -1.9363756737
 H          2.3186633346       -1.6479427759       -2.3308657518
 H          3.2784391100       -0.4033897019       -2.4016269318
 O         -7.1381935727       -0.9144283853        0.2181959340
 H         -6.5731975546       -1.1261641261        0.9964927400
 H         -6.5573195495       -0.6041897902       -0.5040397090
 O         -1.4338946895       -6.7419673056       -4.8312638624
 H         -1.2642135928       -6.1360564864       -5.5687732694
 H         -0.5787980470       -6.9212596056       -4.4142608687
 O          0.3634830360        1.4323940139        4.3338113386
 H         -0.3198815563        2.0281495615        3.9565865983
 H          1.2028179628        1.8362182985        4.0406652143
 O         -8.1770763403       -0.8605870183        5.2846115263
 H         -8.3247881086       -0.2364317409        4.5637002727
 H         -8.2256213945       -1.7354488861        4.8854769006
 O         -5.0726237778       -6.7680257812       -2.0973526864
 H         -4.1477997828       -6.9987266878       -1.9094931274
 H         -5.5966052845       -7.0452936065       -1.3148368443
 O          1.6712318373        1.0628048873       -4.2138617291
 H          1.4974028071        1.0292147956       -5.1816899586
 H          1.1145227369        0.3505725971       -3.8371815428
 O          9.1778346658       -0.8466067371       -2.2403552835
 H          9.6257284796       -0.5195012404       -1.4407712160
 H          9.2095939824       -0.1029336902       -2.8780952347
 O         -2.9334888875       -0.9141767167        5.1892887382
 H         -3.2344697703       -1.7619783649        5.5491292319
 H         -2.1262791306       -1.0658444571        4.6504309331
 O          7.5022429161       -2.4975068082       -0.5217397025
 H          6.8013868047       -3.1430951228       -0.3073446683
 H          8.3537695649       -2.9523736753       -0.4784656808
 O         -7.8950536449        2.2841766631       -1.0836107968
 H         -7.1465078111        2.2411739430       -1.7149154130
 H         -7.5011586175        2.2158145319       -0.1925919547
 O          2.2921505838       -1.9562665457        0.4887078827
 H          2.4723877741       -1.3669525029       -0.2636867858
 H          2.3360663779       -2.8482477764        0.1040175503
 O          6.8211779206        2.9996682864       -3.7663978180
 H          6.3575095187        3.1492838176       -2.9203376099
 H          7.3979973972        3.7885423611       -3.8815775401
 O          5.5023152287       -6.0939430572        2.0675261978
 H          4.7269784145       -5.8019790947        2.5873851656
 H          6.2732869102       -5.8591856118        2.5915376669
 O         -3.3684014532       -3.4300589576        3.5114606177
 H         -3.2192956315       -2.5460517818        3.0741945581
 H         -4.1479507495       -3.3613979326        4.1010158171
 O          7.9974636876       -5.6572384641        0.1997984002
 H          7.9855957229       -6.6027004868        0.3442794695
 H          7.6724149688       -5.5153660800       -0.7362247315
 O         11.5754419159       -0.4915911399        2.3363754117
 H         12.4808237780       -0.3704930685        2.6200863787
 H         11.0190888543        0.0967251704        2.8891965368
 O         -0.1643211252       -2.6355748862       -1.4029398216
 H         -0.1764065173       -2.5818599639       -0.4286634193
 H         -0.2550394625       -3.5783397283       -1.6138292516
 O          4.7376522745       -5.0785234484       -2.9140451169
 H          4.7738729185       -4.1592232640       -2.5789732932
 H          4.5578144157       -4.9879126857       -3.8547247917
 O         -9.7346630461       -1.3633231324       -0.1684759572
 H         -8.7788841608       -1.1622157909       -0.0924291628
 H         -9.9805662389       -1.6014752509        0.7448298813
 O         -8.5713972915        1.0664349555        3.0876864242
 H         -8.2575072976        1.7102921733        3.7410331747
 H         -9.2709776383        1.5202354114        2.5688345470
 O          0.9981058598       -6.6668343312       -3.4404287794
 H          1.8126815769       -7.0683312248       -3.0602826751
 H          1.3021206287       -6.1263568427       -4.1874827922
 O         -6.7505715186        5.4549213324       -0.7949588451
 H         -7.5381189765        5.1796482628       -0.2881920920
 H         -7.0007393740        5.4683868834       -1.7298456554
 O          7.4863767101       -2.7308189531       -3.2814685469
 H          8.1555329469       -2.2249243305       -2.7896079730
 H          6.6389882312       -2.6067537354       -2.7921075902
 O         -4.2996788208        3.4611096798        4.1167104968
 H         -4.0664938018        3.4305932949        3.1636748800
 H         -5.2516909480        3.3319326244        4.1874532546
 O         -1.2154036489       -3.9763783450        5.0748292207
 H         -1.9033464244       -3.6393682136        4.4667589630
 H         -0.6591978871       -3.2264728175        5.3671958676
 O          0.8798750621        0.8603386949       -6.7199271155
 H          0.8326188183        1.6657311728       -7.2328724757
 H         -0.0308725632        0.5040685728       -6.7007083350
 O         -0.4476670681       -5.4278102210       -1.6092176983
 H         -0.0177841641       -5.5542221404       -0.7404190419
 H          0.1254372676       -5.8674457557       -2.2767830880
 O         -1.1426052607       -4.4978039037       -6.5807562171
 H         -0.6497821171       -3.6694056085       -6.4978833641
 H         -2.0784398368       -4.2608137290       -6.6126880344
 O         -5.5637231074        0.5828925366        4.1111774748
 H         -5.4598603863       -0.0028045637        4.8951852060
 H         -4.6537189706        0.8148803219        3.8008714190
 O          2.6165268793       -3.5722323953        5.4713737120
 H          3.3446944556       -3.0931699147        5.9007935483
 H          1.8180376726       -3.3609456210        5.9760059985
 O         -8.3547400432       -0.1171194301       -3.3135665095
 H         -8.8673594870        0.7109341250       -3.4145300543
 H         -8.9928505210       -0.8423352996       -3.1733268445
 O          0.8578312532       -5.5323578610        0.6859319592
 H          0.6238972172       -5.1927868249        1.5719562693
 H          1.6187994858       -5.0276541379        0.3607824135
 O         10.0048019706        0.2773367904        0.1172462621
 H          9.1813079751       -0.0428026437        0.5611031949
 H         10.7297217119       -0.0688984994        0.6526143715
 O          3.3214355496       -7.4247235053       -2.4250323254
 H          3.3505272973       -7.5480242169       -1.4635203101
 H          3.8777009020       -6.6497716626       -2.6002160578
 O          4.7743651032        4.5384656529        3.7332739700
 H          4.3900720888        4.7640257991        4.5799047241
 H          5.6723563306        4.1791391697        3.9113987448
 O          8.4644618049        5.0444144852       -3.5063858726
 H          7.9006756819        5.5216129606       -2.8762645658
 H          9.1205332697        4.5594576042       -2.9830593871
 O          3.0048492282       -1.1106474662       -5.5211838311
 H          3.7580699995       -0.7338581473       -6.0410596239
 H          2.7949873393       -0.4350646243       -4.8626403786
 O         -0.3954209167        4.4258459523        1.0646030511
 H         -0.8007679291        4.0081325684        1.8458878979
 H         -1.0310797466        4.3598693317        0.3251752894
 O          1.5907530356       -2.3452288067        3.2601418146
 H          2.0755260434       -2.6045681300        4.0654881803
 H          2.0160006696       -1.5327705782        2.9059040102
 O         -2.9200911788        5.9936587785        1.6972827989
 H         -3.0274999898        5.0247207919        1.5462257858
 H         -2.2444926962        6.3512657606        1.0799305408
 O         -3.0573398343        6.8086116906       -1.9250716925
 H         -3.7298445982        7.0871456016       -1.2716239659
 H         -3.5569701683        6.4613310733       -2.6768141755
 O          9.8071535772        1.0129096149        3.6987221261
 H          9.7360938450        1.3908302005        4.5801428477
 H          9.0044997140        0.4611094708        3.6109952074
 O          0.7777739397        3.5934699797       -4.7802668198
 H          1.6327531307        4.0552134289       -4.8055377452
 H          0.9750092907        2.7296581425       -4.3756384498
 O         -1.2861086818        5.1542827528       -3.9514347916
 H         -0.5135821810        4.6284112365       -4.2260052683
 H         -1.9648254921        4.5043983671       -3.7076278506
 O         -1.2879990810        2.5767318925       -6.2170766599
 H         -2.0428728643        3.1663911469       -6.2978444788
 H         -0.5606567395        3.0883505330       -5.8236354106
 O         -5.1382529377        6.5142640045        3.1595077573
 H         -5.4895290762        7.2700023909        2.6842144551
 H         -4.2713331537        6.3272415759        2.7500951294
 O         -9.4529605182        2.2328547976       -3.9512749989
 H         -9.7217942739        2.8845645888       -3.2887251978
 H         -8.8099366256        2.6596147815       -4.5237578487
 O          3.7358232215       -3.5971366922       -5.1304607925
 H          4.6686116790       -3.6213484979       -5.4331992391
 H          3.4585103512       -2.6676162619       -5.2988763950
 O          7.7412738147        2.4913560882       -0.5611241244
 H          7.7250841223        2.3475383975        0.4084089092
 H          6.9306668906        2.9827499065       -0.7867870407
 O          3.4937432212        4.6403766594       -0.1150057167
 H          2.8945090622        3.9544533722        0.2573731820
 H          3.0296303196        4.9605923776       -0.8990662963
 O        -10.2778688765        2.4111322063        1.5277951587
 H        -10.3283339047        1.9160848833        0.6459023866
 H        -11.1835252960        2.5418517694        1.8061359985
 O          8.7928820083        4.8231323128        2.0573355895
 H          9.2575433305        3.9927468332        1.7762860901
 H          9.4377890296        5.5257435425        1.9877975463
 O          5.4765625127        0.7393489256        6.7658700861
 H          5.2331729414       -0.2054874806        6.6376993477
 H          4.7394716341        1.1337247301        7.2419297199
 O         -5.3800335103       -5.1381343986       -4.2824635186
 H         -6.2307230261       -4.7072214492       -4.1262923045
 H         -5.3830238915       -5.9364803287       -3.7353290105
 O         -5.4062841588       -3.4150339638        5.2377119508
 H         -4.9516396455       -3.8759269166        5.9488347494
 H         -5.4965687411       -2.4951115854        5.5720616576
 O         -4.3147438204       -1.7643430996       -0.0149351464
 H         -3.7118413970       -1.8020314624       -0.7835355320
 H         -4.5419471578       -2.6713838659        0.2319716786
 O          1.6513525127       -7.4164660019        2.4132374459
 H          2.2455819641       -8.1246735316        2.1623368713
 H          1.5025590881       -6.9011733304        1.5922906227
 O         -4.8191084793        7.2232877486        0.0890539975
 H         -5.5609616028        6.6546794246       -0.1709228303
 H         -4.2522252125        6.7083266031        0.6885882336
 O         -7.7374426720       -3.4870904635       -3.6100772910
 H         -7.5785268266       -3.4534588079       -2.6416744409
 H         -8.6749468114       -3.2851674929       -3.6796917520
 O         -6.7015640489        0.2306509053       -5.3524355320
 H         -7.3739346813        0.0600458442       -4.6552474567
 H         -5.8445340210        0.2616378582       -4.8893958259
 O         -3.2229803644        3.2213951152       -3.4396553629
 H         -3.2931084990        2.4649335874       -2.8272612604
 H         -3.8846472669        3.8815547423       -3.1827914479
 O         -5.9857327898       -0.3035453395       -2.0853423544
 H         -5.5115508429       -1.0559678223       -2.5012142643
 H         -6.8847324987       -0.3003633902       -2.4647357251
 O         -4.6552518005       -4.3176572911        1.2510662439
 H         -4.3096590703       -3.9696359100        2.0902665697
 H         -4.2388957676       -5.1875168258        1.1225203784
 O          8.9436448307        1.3549315255       -3.7379029061
 H          9.5562705013        1.9709879359       -3.3140601054
 H          8.0952910803        1.8489797075       -3.7580731257
 O          4.7849513082        1.8315432837        4.3661912550
 H          5.2337985269        1.4529099699        5.1423405394
 H          4.9419207938        1.2091899510        3.6386561624
 O          2.8594568741        2.0002533615        6.4096738230
 H          2.2962391656        2.8052771522        6.3740226307
 H          3.4985523063        2.1086681447        5.6909729364
 O          9.7777923031       -2.5681444299        2.2555046312
 H         10.5158877944       -1.9598265630        2.4121226726
 H          9.9559006710       -2.9797579327        1.3950506009
 O         -0.0614169057        1.3535438673        6.9966194514
 H          0.0928404623        1.3846857395        6.0284254624
 H          0.7252954698        1.7115847625        7.4070911217
 O          5.1060820337        0.0275506773       -6.5811021044
 H          5.9213988966       -0.2394026130       -6.1221130097
 H          4.9062265066        0.9101406786       -6.2308678823
 O          5.0138538158       -2.4861399195       -2.2636576535
 H          4.7957087423       -1.7412902071       -2.8443325035
 H          5.0275922909       -2.1214191564       -1.3530085398
 O         -8.7900591934        4.6527566629        0.8265896490
 H         -8.1619757309        4.7034507978        1.5643269836
 H         -9.3269672522        3.8619153592        1.0066227643
 O         -6.9803805232        2.6175734118        4.7977195402
 H         -7.1174064045        2.5692348602        5.7433559561
 H         -6.4408240378        1.8050996523        4.5491626260
 O         -4.1671948232        3.2429585987       -5.9466298006
 H         -4.0504780783        2.4023451261       -6.4232354854
 H         -3.7667274508        3.1154124531       -5.0579907565
 O         -1.1065991355       -7.2184404294        2.8275065547
 H         -1.2079717733       -7.1029305759        3.7737326259
 H         -0.1508806124       -7.3527513434        2.6840191743
 O         -5.6526638162       -0.9619691416        6.2330306199
 H         -5.2148057822       -0.5125775682        6.9942807167
 H         -6.6162778965       -0.8576108374        6.2877888412
 O          3.5174842305       -7.0138807736        0.2786689768
 H          4.3186151267       -6.9361993005        0.8073234454
 H          3.2980208291       -6.1140696255       -0.0091025263
 O          4.6816608837        0.0236698682       -3.2504385512
 H          5.4713773324        0.2207465940       -2.7117645270
 H          4.6066117635        0.7485204327       -3.8989933687
 O         -0.0609891667        6.6159820572       -2.1474895291
 H          0.2119445043        7.4222411383       -2.5824148552
 H         -0.6496500561        6.1318726971       -2.7868781474
 O          2.3006936117       -0.3709647238        5.3074839594
 H          2.2544316844       -0.0921142826        4.3793393080
 H          2.3677075780        0.4562247352        5.8264871067
 O        -10.0842293049       -2.1121828743       -2.7291729400
 H         -9.9489093253       -2.0299442597       -1.7611584872
 H        -11.0134942840       -1.9418676450       -2.8828957585
 O          7.3160838662        1.7911243603        1.9703019481
 H          6.3517569371        1.9129812068        1.8355873898
 H          7.4931461092        0.8375868724        1.9021090878
 O          7.5255635979       -0.3786571327        4.0940717782
 H          7.5502990117        0.1837620282        4.8912446089
 H          7.2082353645       -1.2641167757        4.3350743378
 O         10.1388930860        2.6407656194        1.4783183716
 H         10.0153468885        1.9543031424        0.7960124771
 H         10.0183833537        2.1647507288        2.3167746431
 O         -7.2527508015       -4.8024032527        1.3734112996
 H         -7.5892516146       -4.3659192197        0.5669375544
 H         -6.2866107731       -4.6076088424        1.3547187660
 O         -9.6659555877       -1.5639147057        2.5008380596
 H         -9.0418400398       -2.2301608159        2.8142005570
 H         -9.2539771161       -0.7048586947        2.6539297362
 O          6.7929373996        0.2244997450       -1.5802831598
 H          7.5746180564       -0.3205898177       -1.7926011560
 H          7.1515130069        1.0747466244       -1.2516110932
 O         -6.7915908107        4.4303151469        2.7053354121
 H         -6.1856139430        5.1823083331        2.8772138169
 H         -7.0556044739        4.0716981313        3.5611436315
 O          5.1222136760       -1.0488755757        0.0142232875
 H          5.8549815434       -0.6171621302       -0.4735736052
 H          4.3948092325       -0.3887993952       -0.0123708486
 O         -1.6651054704        1.9616547490        0.5805063759
 H         -2.0712105273        1.6539331291       -0.2454630744
 H         -0.8002124493        1.5312351364        0.5796626940
 O          0.2307520952        0.5807497387       -0.7411200365
 H          1.0322669439        0.1565958940       -1.0566997141
 H          0.0788642376        1.3369938593       -1.3245218858
 O        -11.8969099837        0.5546800760       -2.8641327777
 H        -11.4505888930        1.0951476665       -3.5198148220
 H        -11.5256828053        0.8366018835       -2.0126579622
