  222
       -371.48247546
 H         -1.9668398704        1.2208665245        0.8782486702
 C         -1.9472487408        0.4309936942        0.1294040100
 H         -2.9447259505        0.0112035475        0.0289369801
 C         -1.0003292847       -0.6797732137        0.5421098386
 H         -0.9394762258       -1.4125773166       -0.2603070814
 H         -1.3914810061       -1.1520479687        1.4373768604
 O         -1.5571704175        1.0367787355       -1.0913338992
 H         -1.4135065597        0.3093943300       -1.7396240997
 N          0.3334636088       -0.1326880413        0.8281045441
 H          0.2130005911        0.7432884935        1.4004633518
 H          0.8387033086        0.1161460517       -0.0562429165
 H          0.9082883187       -0.8053203919        1.3576396385
 O          1.7183110747       -2.8325170797        5.0840294608
 H          1.7209490925       -3.7911618555        5.0651093415
 H          0.8888670370       -2.5520746121        5.5182678679
 O          2.1652723564        5.8067055455        0.0343840305
 H          2.4799118290        5.4815814387       -0.8234636286
 H          1.2050533045        5.6670818049        0.0566030180
 O         -0.1496309428        2.1562895504        2.1422577866
 H         -0.9975438611        2.5435161476        2.4317809498
 H          0.5320424842        2.5620989991        2.7090778461
 O         -3.1034890464       -2.4393312149       -1.0439056830
 H         -2.5448984462       -3.1627163555       -1.3623243296
 H         -3.1973539221       -1.7864176761       -1.7529423148
 O         -2.3984302592       -3.0437316672       -3.9658729633
 H         -2.1124864722       -3.8799388711       -3.5876406486
 H         -3.3670106496       -3.0159735130       -3.9020473961
 O         -6.2589763521       -2.3897544140       -0.9712848119
 H         -5.8015995981       -3.0742153372       -0.4694187545
 H         -5.9028194616       -2.4336977934       -1.8694641314
 O          1.7334102735       -5.0149033352        2.4985393110
 H          2.6130109209       -4.6423318229        2.6622771549
 H          1.1430715839       -4.2413031708        2.5117947333
 O          3.8303481635       -1.2199777678        4.4122604538
 H          3.1253036289       -0.7424708299        3.9045241861
 H          3.3276960954       -1.7762259103        5.0204296446
 O         -2.1859019597       -4.2709589916        1.1896844784
 H         -1.4220317660       -3.8719301763        0.7251990685
 H         -2.1293086777       -3.9656956655        2.1043639466
 O         -0.7846783515        2.5598558680        5.1321783245
 H          0.0319366768        3.0072291389        4.8625160253
 H         -1.4900963131        2.9168411388        4.5712964365
 O          1.5998712748        3.3171497871        3.8545117532
 H          2.0645085910        3.9896344402        3.3386669784
 H          2.3137142344        2.7688644468        4.2297301686
 O         -1.1266211517       -1.4169563620       -5.8215807991
 H         -0.2004663010       -1.6072477117       -5.5750436382
 H         -1.6319276398       -2.1637892422       -5.4792450869
 O          7.8223790735        1.8262040346        0.0058163273
 H          8.6695907918        2.0351744276       -0.3875924882
 H          7.9965151629        1.2886641098        0.8066834577
 O          1.9234739614        0.0041249825        3.0793151870
 H          1.0713405134        0.1223892794        3.5348195460
 H          2.1150698907        0.8279689007        2.5985063163
 O         -2.6342080067        5.7003506324        1.7623168782
 H         -3.3614193870        5.4827773175        1.1199268472
 H         -2.8246624545        6.5707300808        2.1111178860
 O          0.1209294033       -3.4087024953       -0.0131820801
 H          0.6523051381       -4.2333195323       -0.1105914647
 H          0.4901075600       -2.9746496345        0.7730489098
 O          2.9452909751        4.5812349662       -2.3486760679
 H          3.5727491391        4.6087637348       -3.0933378765
 H          2.0705083043        4.4260887829       -2.7514797478
 O          0.4828394026        2.7712168585       -0.5192845973
 H          0.1173594138        3.5614824409       -0.0698947655
 H         -0.2610375292        2.1562588912       -0.6504891531
 O          2.4152248087        1.9772114911        1.2277834422
 H          1.7415861195        2.2417340325        0.5716093024
 H          2.7947446360        2.8283171178        1.5417142547
 O          0.4387321406        3.7886072088       -2.9556587605
 H         -0.3330656635        4.3748979367       -2.9474401222
 H          0.5142932138        3.4494413876       -2.0291526508
 O         -3.3254918513        3.1219846095       -1.5615595856
 H         -4.0032193935        2.8316317623       -2.2175323319
 H         -2.7468810892        2.3578529189       -1.4036373447
 O         -4.3713300402       -1.7514792411        1.1472277024
 H         -3.8289114300       -2.0723377141        0.3907658290
 H         -4.8409557427       -2.5217016158        1.4742028820
 O          3.8711232186       -2.9156341385       -3.2676043470
 H          3.0561611678       -2.6124629426       -2.8188768944
 H          3.5967339352       -3.2139125522       -4.1372594088
 O         -0.5678455398        0.1144101522        4.2167483438
 H         -0.6411990758        1.0165760571        4.6261242747
 H         -1.3934669783       -0.0093966750        3.7203445596
 O         -1.8399533308       -4.8412072613       -1.7777805548
 H         -0.9248804752       -4.9295889678       -2.1431846940
 H         -1.7835143381       -5.1572661687       -0.8718477528
 O          1.3314850677       -1.9068495130       -4.7519704522
 H          1.7873388875       -1.0730592982       -4.9489563695
 H          1.2579716416       -1.9630268446       -3.7851504519
 O          3.6543415962        2.2154523441       -1.3637315790
 H          3.3426659113        3.1046867058       -1.6537505806
 H          4.2428432815        2.3835684913       -0.6075729430
 O         -5.1401222217       -3.0012278921       -3.5270994814
 H         -4.9601955903       -3.8425236220       -3.0101656309
 H         -5.7405159604       -3.2432031909       -4.2325723796
 O          2.5425142761       -2.1047367121        0.7298479390
 H          2.8817720407       -2.5137161112        1.5521598360
 H          2.9220585479       -2.6640399890        0.0264870355
 O          2.3146562177        0.6236683291       -5.2214558529
 H          3.1050468723        0.9433228751       -4.7051108417
 H          2.4344791529        0.9192175928       -6.1233629105
 O          5.3593949931        2.7720487326        0.7728116002
 H          6.2541610344        2.6585430645        0.4223187744
 H          5.2986517110        2.1972162228        1.5416072980
 O          6.0360950423       -3.8390651675        1.0975846539
 H          6.6469225310       -3.0816536624        0.8795851868
 H          6.5894262238       -4.6165182995        1.1720326425
 O         -2.4229814493        3.2803166489        2.9726080699
 H         -3.1314509202        2.8537267334        2.4633194470
 H         -2.4355407374        4.2092439719        2.6844042276
 O         -5.1950084333        2.1746936353       -3.1669282824
 H         -6.0251984656        2.1585587224       -2.6679149705
 H         -4.9037343192        1.2598252548       -3.2704037329
 O         -1.8315563025        5.1623893670       -2.2971426785
 H         -2.4234573249        4.3996260987       -2.0734734504
 H         -2.4002375817        5.8640151791       -2.6130848062
 O          6.1540658541       -0.1507720174       -0.9785169067
 H          6.6758310023        0.6500836202       -0.8181963538
 H          5.3275191841       -0.0544013303       -0.4584355665
 O          0.2571110685        1.2400313586       -3.6357397918
 H          0.9307732886        1.0455031838       -4.3168487781
 H          0.2787377763        2.2141635502       -3.5145340322
 O          7.9514534082        0.3042656360        2.2427631981
 H          7.0024174809        0.3540341256        2.5237693010
 H          8.4828797722        0.4926233684        3.0163791723
 O          1.6688857096        0.3974055971       -1.4792098587
 H          1.1125443798        0.7465730819       -2.2066395448
 H          2.4100214078        1.0289057741       -1.3769922670
 O          3.3067591045        4.3775971407        1.9182093311
 H          2.8788442002        4.9828953308        1.2604899967
 H          4.2244435676        4.2994946992        1.6409243512
 O          4.5885358206        4.0814237932       -4.4467686525
 H          5.4834108142        4.3335277094       -4.6727848020
 H          4.5823379480        3.1103524073       -4.3471610299
 O         -4.3466421050        2.2320612043        1.3358205413
 H         -4.4593771006        1.5467233396        0.6573457086
 H         -5.1241847980        2.8150483428        1.2184745911
 O         -6.7051590188        3.4061546386        0.8569195483
 H         -6.9368410586        3.0231113874       -0.0118683697
 H         -7.1244316120        2.8127642611        1.4986852856
 O         -3.9765395999       -0.4680244246       -2.8561475421
 H         -3.3065513999       -0.0592268925       -3.4758910578
 H         -4.4494240742       -1.1402692962       -3.3567841675
 O         -4.5348772382       -5.1033541573       -2.1330575544
 H         -4.7316938329       -4.9166365053       -1.1967989644
 H         -3.5678069182       -5.1908202022       -2.1650486290
 O         -1.9226671180       -2.9475471768        3.7034767747
 H         -2.4088553738       -2.1044362763        3.5663824863
 H         -1.6448609963       -2.9226660473        4.6287586170
 O         -2.3104150072        0.6099303468       -4.5309305837
 H         -1.9632044558       -0.0709048369       -5.1472741167
 H         -1.5212456820        1.0500524460       -4.1811631462
 O          7.6059670636       -1.8612279024        0.4881024446
 H          7.8773138765       -1.2423821023        1.1793926658
 H          7.1065153998       -1.3211602401       -0.1616099435
 O          0.6425855206       -4.9985826566       -2.6539621027
 H          1.1262207033       -5.3952572845       -1.9150641798
 H          1.0202667092       -4.1242358889       -2.7946059531
 O          5.3866630328        0.4254839941        2.8587989262
 H          4.8928588601        0.2036712602        2.0176276144
 H          5.1243165099       -0.2634549645        3.4853387904
 O          3.7201673084        1.8152339097        4.6529894839
 H          4.3400074672        1.5289277253        3.9651904493
 H          3.6119772958        1.0665213139        5.2428537671
 O          0.4904597715       -2.5351959509        2.5950036374
 H         -0.3943931372       -2.6700219797        2.9919938422
 H          1.0829246789       -2.3290104628        3.3346806466
 O          4.3716399116        1.4325102804       -3.8407181959
 H          4.9320910815        0.6151313174       -3.8237354274
 H          4.1558704656        1.6303394698       -2.9055481613
 O          4.0646100364        0.0190279372        0.6664681696
 H          3.4616268097        0.7944788747        0.7400813317
 H          3.4745221096       -0.7746053313        0.6678476149
 O          1.5746790209       -2.2190641234       -2.0258846341
 H          1.6843235624       -1.2767055574       -1.7865426231
 H          0.9857001123       -2.5892643744       -1.3388362608
 O         -0.6582496153       -1.8738375549        5.9331315988
 H         -0.8483864644       -1.5376368652        6.8086073075
 H         -0.6160872361       -1.0819834715        5.3298778913
 O         -0.9461366438       -1.1049823489       -2.6202562254
 H         -0.4469843279       -0.5804689003       -3.2553464636
 H         -1.4389489523       -1.7620079291       -3.1390146545
 O         -8.1084298120       -0.6414873538       -0.0075968619
 H         -8.8848184514       -1.1983446192        0.0566306806
 H         -7.3964796998       -1.2148939047       -0.3537959262
 O          5.6703375864       -0.8223382485       -3.5664288299
 H          5.0780918677       -1.5909649599       -3.5196551543
 H          5.9737247294       -0.6696719042       -2.6547541261
 O          3.9766175649       -3.9052243543       -0.6937554196
 H          4.7736948973       -3.9155679694       -0.1329907415
 H          4.2438038092       -3.6999641424       -1.6003444430
 O         -4.7609120425       -4.4867901586        0.5372324912
 H         -3.7932136538       -4.3792309437        0.7155547898
 H         -5.0377595481       -5.2656647496        1.0207010989
 O         -5.0982297498        0.3032167849       -0.4877402041
 H         -5.1566328117       -0.4926803131        0.0676642797
 H         -4.7074865356        0.0256782551       -1.3356534145
 O         -3.0199200233       -0.5837571258        3.1349760989
 H         -3.7096821672       -0.0447107347        3.5696938213
 H         -3.4812356988       -0.9285010208        2.3441737873
 O          3.8829054985       -3.3192784762        2.7002984693
 H          4.0359020746       -2.6121575653        3.3554033881
 H          4.7178476020       -3.4977822850        2.2373356186
 O          1.8058703176       -5.4487363407       -0.1536823393
 H          2.6577328968       -5.0189522999       -0.3545177758
 H          1.7942181111       -5.5529352512        0.8219340136
 O         -7.1806563150        1.7589208572       -1.2545949175
 H         -7.9680829482        1.2189867374       -1.1498672976
 H         -6.4479097791        1.2001885298       -0.9078823956
 O         -4.4850940378        5.0443814406        0.0184050756
 H         -5.3442552884        4.7406757514        0.3337044940
 H         -4.1064772037        4.3083014010       -0.4970583765
 O         -5.1635345104        0.9402185358        3.5830608762
 H         -4.8258329029        1.4919042026        2.8507497458
 H         -6.0834858611        0.7800127371        3.3475434541
 O         -0.5351397408        5.1363506405        0.1109409035
 H         -1.1891162339        5.3586250912        0.7957370110
 H         -0.9801403658        5.2853192038       -0.7436862904
 O         -7.6491817639        1.0628029290        2.1197627699
 H         -7.7316455822        0.4617175455        1.3550193671
 H         -8.5012053202        1.0728032503        2.5566456305
