  240
       -407.36489103
 O          0.2234333402        0.6234061267       -3.1628271673
 H          0.7332949534        0.0044522119       -2.6016766805
 H          0.1432621362        1.4662883062       -2.6626776095
 O          0.7661429192       -0.8828805204        1.1154863689
 H          0.2510638945       -0.9360389988        0.2887077247
 H          0.1287467291       -0.9619797890        1.8391696211
 O          6.9658731356        0.9863985399        3.3084586981
 H          6.7746557075        0.1190011068        2.9285836547
 H          6.5895692156        1.6456939440        2.7050469035
 O         -2.1881909013        1.3673961406       -1.6105056451
 H         -3.0281798837        1.1546234310       -1.1336018000
 H         -2.0537320827        2.3165479301       -1.4301990255
 O          2.7993181764       -4.9249192378       -1.8750121101
 H          2.0128745132       -4.4727357816       -1.5013575114
 H          3.2775307247       -5.2209500599       -1.0877512167
 O          2.9264675563       -2.2439932007        0.3058611632
 H          2.6932857502       -2.3454561648        1.2449925094
 H          2.2438052128       -2.7907622698       -0.1410635241
 O          1.9118943864        3.7565090173        0.9463017846
 H          1.8499703503        2.7880904729        1.0151311185
 H          2.4100391560        3.9543576049        0.1302894311
 O         -3.8269227047       -1.0388226341       -2.0488119063
 H         -4.5652235059       -0.4218495202       -1.9085322220
 H         -4.1970412234       -1.7828838351       -2.5613457622
 O         -2.8945797009        0.1685198731        4.3069329242
 H         -2.2537601467        0.6118063365        4.8759891582
 H         -2.8840577972       -0.7636393536        4.5837411630
 O         -0.7435908399       -0.9141229749       -1.0685809280
 H         -1.2863721639       -0.1310815851       -1.2442828298
 H         -1.2739559196       -1.6962197362       -1.2848119819
 O         -1.1169654572        1.5573952062        6.1429434725
 H         -0.3231761256        2.1645464364        6.0693306724
 H         -1.3900056839        1.6156918929        7.0591516411
 O         -1.9668217027        0.3940893389        1.7623128042
 H         -2.3035809078        1.2762704602        1.5107866423
 H         -2.2276841558        0.2590786106        2.6927588401
 O          0.8078545766        3.2992420569        6.0828759578
 H          1.7120841395        2.9534973352        5.9929919224
 H          0.7364221135        3.9761994186        5.3830518628
 O          0.6209183485       -6.2645914032        0.5015615681
 H          0.5128757694       -7.2142593112        0.5375767183
 H          0.1233250587       -5.9574758130       -0.2927582171
 O          0.8761256428       -3.4040599689       -0.9047475819
 H          0.6242874053       -2.7976965863       -1.6163348739
 H          0.1586545138       -3.3956673993       -0.2315984204
 O         -5.5354467150        2.2705987747       -3.1306896154
 H         -4.6481933210        2.1523152752       -3.5065963451
 H         -5.4359379841        2.8724971781       -2.3800228981
 O         -5.9837162540       -1.6874146642        0.0531096676
 H         -6.2411327579       -1.1259682268       -0.6931044322
 H         -5.7052111076       -1.0746870848        0.7477093175
 O          5.1099648940        1.6060774975       -2.4190085218
 H          4.2332610606        1.6218567509       -1.9654465131
 H          5.4469613730        0.7110870096       -2.2876839758
 O          2.1221440929       -0.7639101180       -1.8379846104
 H          2.5950661181       -1.3975698828       -2.4149620555
 H          2.2574365902       -1.1032274507       -0.9359175012
 O         -4.2875399263       -2.6324824834        2.5228481191
 H         -3.8142210474       -2.2949140749        1.7251279854
 H         -5.1500722903       -2.9103534949        2.2130103120
 O         -4.8179423092        3.7574212358       -0.8553361391
 H         -3.8860025264        3.9282851463       -1.0913655700
 H         -4.9582009946        4.2126564972       -0.0167762573
 O          5.5792577329        2.6085684816        1.4788704094
 H          5.2710343074        1.7547659557        1.1163939705
 H          5.8009309837        3.1444381490        0.7041334796
 O         -1.0979799859       -3.4225473207        0.8590729306
 H         -1.6151119491       -4.2426671459        0.8141015576
 H         -1.7366164757       -2.7087761868        0.6470442950
 O         -1.7653109451        4.4992565145       -4.2723856140
 H         -0.7915444405        4.6023780057       -4.2415619145
 H         -2.1155469507        5.3210729328       -4.6157034536
 O         -4.5834815562       -2.9157859536       -3.8369727410
 H         -3.8284628967       -3.4212282581       -4.1636290197
 H         -4.6623842678       -2.1590030684       -4.4498142282
 O         -0.8541017455       -5.6611595410       -1.6539550133
 H         -1.1797477592       -4.7340379817       -1.6229390254
 H         -0.2953262122       -5.6844220161       -2.4488611525
 O          5.2853781390        0.8038241379        5.4213408513
 H          4.9751913548       -0.0949979197        5.2354981216
 H          5.9840813080        0.9736715130        4.7565446501
 O          0.4330987172       -2.4091619175       -3.4692170460
 H         -0.4484113186       -1.9961782588       -3.4387790481
 H          0.8801617237       -1.9954325469       -4.2291851296
 O          2.7051744370        1.6993963147       -1.3075095549
 H          2.4760567852        0.7976211604       -1.6356065738
 H          2.6669703073        1.5942329468       -0.3347085257
 O         -2.8969543734        1.9188368949       -4.0763716590
 H         -2.5873611770        1.6014595423       -3.1836306048
 H         -2.6498889901        2.8539729564       -4.1026146568
 O         -4.9884918807        0.1387868021        2.0859963705
 H         -4.5286391469       -0.5247204964        2.6166485571
 H         -4.9336154453        0.9715158396        2.5879401013
 O          3.0236585657        3.1311522768       -3.8759357977
 H          2.5117748364        2.5214477427       -4.4416931778
 H          3.8594167985        2.6789863184       -3.7134800622
 O          2.4923010506        1.0337637639        1.2860975012
 H          1.7997616874        0.3289709833        1.1480000188
 H          3.3597899004        0.6011520028        1.1423305754
 O         -4.2918736541       -0.6478985805       -5.3481584920
 H         -3.5509421557       -0.8751772542       -5.9259691984
 H         -4.0187392222        0.1364633261       -4.8590198667
 O          1.4457457217        1.3673961288       -5.3266796038
 H          0.6878714019        1.6716538037       -5.8418106722
 H          1.0376949691        1.0597360573       -4.4750865340
 O         -2.8657157000       -5.4892817305        0.3829266582
 H         -2.3644511395       -5.8977117489       -0.3320723073
 H         -3.5576264353       -4.9543430363       -0.0383103470
 O          5.3557862857       -3.2471045456        0.3264380284
 H          5.2105907430       -4.1874796696        0.4514153554
 H          4.4425148636       -2.8639703058        0.2582645067
 O          0.1525099465       -4.9419248963        2.9357143949
 H          0.2272335241       -5.4237537525        2.0983736366
 H         -0.7980428052       -4.8472273910        3.1150132620
 O         -4.5502568329       -3.7220953984       -1.0032492833
 H         -4.9641540431       -3.7999386536       -1.8680145418
 H         -5.0303490141       -2.9976851276       -0.5413469695
 O         -2.6257427583       -4.7118689625        3.1303208817
 H         -3.1857233554       -3.9213526342        2.9977482073
 H         -2.8062502313       -5.2700101515        2.3659103856
 O          0.9130878629        4.8559106325        3.8232964782
 H          0.6323504281        4.0368964649        3.3545429791
 H          1.8617195304        4.9271851241        3.6859868757
 O          0.0419356190        1.7321725171        0.3910318113
 H         -0.5805718089        1.0050522931        0.5041330540
 H         -0.1477549564        2.1816094707       -0.4392419528
 O          0.7565742266       -5.0105071370       -3.8283162804
 H          1.5637704049       -5.2558382174       -3.3557873912
 H          0.6432869371       -4.0483595544       -3.6341045576
 O          1.1395417161       -1.3266799854       -5.8576357608
 H          0.2291009861       -1.3113308444       -6.2049374605
 H          1.4272855989       -0.3984258773       -5.7873490082
 O         -1.6283201920        5.4901513155        2.8700148914
 H         -1.9462229946        4.6979160368        3.3393917152
 H         -0.7766340800        5.6779593511        3.2888529728
 O          5.8324263719       -1.5145991480        2.3879038314
 H          5.7814988982       -2.2827670214        1.7872689571
 H          5.2763000993       -1.7011263232        3.1610471163
 O          1.0393095628        6.1200211030       -1.4869454361
 H          1.9125502714        5.7542137191       -1.2783672410
 H          0.4387296397        5.7678496449       -0.8089619996
 O          4.8533786047        0.1651327793        0.5923278295
 H          5.2244700737       -0.4393520158        1.2718717267
 H          4.9855105564       -0.2860858464       -0.2635606256
 O          0.4364814426        2.9409505631       -1.9774606752
 H          0.5321313900        3.6205303480       -2.6643354664
 H          1.3449725045        2.6564284129       -1.7332225045
 O         -2.2808154548        3.1025126897        4.1095523835
 H         -1.5291117971        2.7980401985        3.5352521367
 H         -2.0421362165        2.7677910975        4.9839918973
 O          3.5873418366       -2.6276086496       -3.0751661766
 H          3.4218487850       -3.4626796110       -2.5889264772
 H          3.4391402194       -2.8633194927       -4.0119484015
 O          2.7442465738       -3.5392464835       -5.4773036472
 H          2.0917464710       -4.1985604167       -5.2092160673
 H          2.2481459927       -2.7799895485       -5.8186548258
 O         -0.0768457058        2.5707811197        2.8675047503
 H          0.4580913829        1.8917682031        3.3338949437
 H         -0.0687254472        2.2974996860        1.9232990702
 O         -1.8015621642       -0.9013150073       -3.7439055878
 H         -1.1611396689       -0.1992878782       -3.4937585479
 H         -2.5459613835       -0.8522080479       -3.1105649186
 O         -2.2054073218        4.0852539502       -1.5720780340
 H         -1.5403062944        4.4407481334       -0.9602346916
 H         -1.9707043914        4.3543393440       -2.4717327064
 O         -1.2477801998        1.6293262643       -6.2076758345
 H         -1.7974883683        1.6527252224       -5.3916166935
 H         -1.5824782216        2.3232677262       -6.7744973907
 O          5.9006132625        3.7245375090       -1.0450330000
 H          5.7221231721        2.9035925882       -1.5696507020
 H          6.6901077905        4.1223480363       -1.4093832836
 O          4.3537153740       -1.7765282194        4.7566158499
 H          3.3740972963       -1.7000938311        4.8055211589
 H          4.6102403786       -2.4514327106        5.3844750603
 O          2.3296762457       -3.3758188530        2.6805928613
 H          1.5381428750       -3.9450751502        2.7574180360
 H          2.2711563069       -2.7701219502        3.4296848844
 O         -4.4316024308        4.6627283736        1.8125142483
 H         -3.7988136110        5.2497813508        2.2381918419
 H         -4.7389006965        4.0255753635        2.4803156148
 O         -0.5135933281        4.7949473674        0.4714846657
 H          0.3403170830        4.3738598561        0.7228686804
 H         -0.8844684323        5.1867694403        1.2863829461
 O          3.2512450717        4.4555254104       -1.3328653435
 H          3.1151086761        3.9409610769       -2.1441776761
 H          4.1957338575        4.3623063072       -1.1281003664
 O         -6.3847651795       -0.1250163603       -2.2955422037
 H         -6.7650572396       -0.5169906464       -3.0818390098
 H         -6.1623306796        0.8037768856       -2.5352421407
 O         -4.4937382584        1.0654672006       -0.4188905198
 H         -4.7517731693        2.0014208095       -0.4543773680
 H         -4.6033513347        0.7710505006        0.5009626274
 O          5.4407938625       -1.1950134370       -1.6764132976
 H          5.8007215550       -1.9069731851       -1.1309915758
 H          4.7969470731       -1.6410889916       -2.2591888589
 O          1.7036468357        0.8864791410        3.8219931879
 H          2.1176342419        0.9273910830        2.9326788274
 H          2.2774978253        1.4419105675        4.4113713875
 O         -2.5470548220        2.8553144390        0.9593140478
 H         -1.7639309339        3.4101511979        0.8448730637
 H         -3.2659447268        3.4458313439        1.2274097757
 O         -1.5761289307       -1.1088022937       -6.3247455136
 H         -1.6774782675       -1.0594802351       -5.3423205319
 H         -1.4583215339       -0.1829494791       -6.5861471736
 O          3.7029107669        3.9517639671        2.9838832231
 H          4.4834610735        3.5306073316        2.5836285408
 H          3.0335474430        3.9327969625        2.2738173431
 O         -2.0048627706       -3.2498846307       -1.8742045143
 H         -2.9040496507       -3.3423446504       -1.5059338856
 H         -2.0823924935       -3.3000232451       -2.8387186894
 O         -0.2325669009       -1.1392240291        6.4638797559
 H         -0.9946412655       -1.6554095331        6.1512365380
 H         -0.4508019671       -0.2105868338        6.2913870820
 O          1.6854311532       -1.5800316072        4.6796120321
 H          1.0940397884       -1.5323043144        5.4641535738
 H          1.6758765511       -0.6549988470        4.3225771468
 O          3.2630185019       -5.3042644426        0.8340192276
 H          2.3915343417       -5.7228414938        0.7597302415
 H          3.1366336521       -4.6265029077        1.5137753478
 O          0.8325293348        4.9124855737       -3.8249876555
 H          1.7125650765        4.5742712658       -4.0347779532
 H          0.9261574519        5.5122934997       -3.0435204178
 O         -2.3099363431       -2.3730646729        5.1094291521
 H         -1.7123870081       -2.3153568880        4.3184628376
 H         -2.7110364819       -3.2415899492        5.0572795936
 O          3.2472311719        2.4654654379        5.1874194413
 H          3.4980474176        3.0783828637        4.4644934747
 H          4.0453821948        1.9166396526        5.3763238650
 O         -2.9945088297       -1.6136367191        0.4721041947
 H         -3.3579774344       -1.3380231906       -0.3891397291
 H         -2.6129417202       -0.8119411285        0.9101584730
 O         -0.6211452828       -2.0395499960        3.1438730998
 H         -0.6704356955       -2.7360551211        2.4604336057
 H          0.2276705716       -2.1272299181        3.6033792252
 O         -1.9715576506       -3.8045658672       -4.6235115213
 H         -1.2361103218       -4.4257306244       -4.5790747273
 H         -1.7561185281       -3.1640107953       -5.3090286681
 O         -4.7640635880        2.4986767380        3.4818425264
 H         -3.7986165130        2.5905326674        3.6854419927
 H         -5.1978304393        2.3274706052        4.3172489729
