  462
       -779.02458862
 H          1.3267174349       -1.4086529267        1.3092858214
 C          1.0652952225       -1.2636181264        0.2649323643
 H          1.9492698435       -1.4249266596       -0.3472350711
 C          0.5156337575        0.1484798691        0.0249069528
 H          0.3576526008        0.6642131997        0.9676331846
 H         -0.4408310756        0.0606763127       -0.4886886321
 O          0.1070575413       -2.2591891425       -0.0225738838
 H         -0.1057177813       -2.2318935445       -0.9785881812
 N          1.4250586864        0.9593815124       -0.7994005600
 H          0.8750810861        1.6939929411       -1.2880640191
 H          1.9622030936        0.3701667778       -1.4640366823
 H          2.1307598513        1.4268771394       -0.1779601176
 O         -3.7731057456        5.9090231061        5.3349700070
 H         -2.8756835445        5.7920907531        4.9509083067
 H         -3.6847737799        6.5490065673        6.0400348917
 O         -0.7113656184        2.6539796254        4.2643014028
 H         -1.2419152742        2.3280494201        5.0197957940
 H         -1.0062092849        2.0854271205        3.5155862707
 O          1.5924434248        0.8235279786        3.0272644794
 H          2.1216597292        0.0193238348        2.8589295800
 H          0.7950731400        0.4812971751        3.4982003011
 O          2.2609579845       -3.7318423297        2.3931630567
 H          2.2754631317       -4.7106979911        2.2604824465
 H          1.3158894863       -3.5280828504        2.5798922885
 O         -2.4882492631        3.9677980677       -1.4436765350
 H         -2.7304580693        4.7934562375       -0.9600197951
 H         -2.6304928887        4.1671352402       -2.3900147240
 O         -1.5661605981       -3.3283796845       -4.7042547817
 H         -2.4310576599       -3.4802480474       -5.1150657123
 H         -1.1105905798       -2.6635570535       -5.2670543229
 O         -0.3375550996       -1.9039271483       -2.6920627399
 H          0.4056337856       -1.5850277025       -3.2348818214
 H         -0.7618020768       -2.6101754258       -3.1944764187
 O          2.2820304871       -1.1735871032        6.2617050683
 H          1.3833075671       -1.1465489810        6.6041578320
 H          2.4022050228       -2.0405550847        5.8359890256
 O          6.1183663378        5.0728058302        2.2741910149
 H          6.3332322306        4.5311019308        3.0559056334
 H          5.6861827250        5.8578406085        2.6238656273
 O          0.1137910763       -4.7315011170       -1.4652207401
 H          0.7899631346       -4.1242853110       -1.8169026190
 H          0.5671870599       -5.5757520832       -1.3350009656
 O          1.3649669745        5.3680654740        4.8173259866
 H          1.3316403687        4.9253160104        3.9448096256
 H          1.4609917731        4.6400234056        5.4584930082
 O         -1.6556817601        1.1996236935        2.2739902410
 H         -2.6339884295        1.2679083346        2.2922622158
 H         -1.4864118686        0.2364115515        2.1858140405
 O          5.0404745581        5.3410628250       -1.6194692727
 H          4.4805895477        6.0956186504       -1.8177920166
 H          4.6046877583        4.8850212553       -0.8634235167
 O          2.7522458561        3.1640403932       -5.7518732226
 H          3.6399219991        3.0465310472       -6.1138389508
 H          2.8025815635        3.9434923587       -5.1797206456
 O         -0.1117225445       -3.0843073918        3.4234627965
 H         -0.6566488540       -2.4078482254        2.9854358970
 H         -0.5859935478       -3.9278074548        3.3443469761
 O         -3.7171284833       -1.4383927463        0.3763055063
 H         -4.1381210902       -2.2838910112        0.1420050061
 H         -4.3830773411       -0.7451866881        0.2229583165
 O         -3.1687399983       -0.2072416117       -6.4187314569
 H         -3.2323055470       -0.5135525198       -5.4758659810
 H         -4.0121461530       -0.4338081015       -6.8132868105
 O          1.8564013889       -1.2107213648       -4.0219779168
 H          2.3916304273       -1.6623231072       -4.7026864853
 H          2.1878118124       -0.2984541832       -3.9612121586
 O         -0.1776163473        5.8785518944        1.8966917334
 H         -0.3346742609        4.9403887228        1.6861342175
 H         -0.6516482514        6.0168417237        2.7298250778
 O          8.6527528415       -2.2086508838       -2.0652233702
 H          8.3718674736       -2.9916819750       -2.5521193300
 H          7.8683295954       -1.6554793238       -1.9345248720
 O         -7.7480954441       -5.0252723978        0.1062556137
 H         -6.9724095426       -5.6013153451        0.1983039670
 H         -7.8885943774       -4.6161795946        0.9666993439
 O          7.1803822189        4.3673977157       -0.2809475225
 H          6.9624556859        4.6302359662        0.6249884467
 H          6.6666774136        4.9495645489       -0.8596014793
 O         -0.2306943140        6.0657634846       -0.8180144884
 H         -0.2569569338        6.2490646872        0.1366744741
 H         -1.1170455037        6.2620574406       -1.1313166034
 O          1.4926870970        3.7125226092        2.6188810942
 H          0.9000990491        3.0314271716        2.9542483129
 H          2.3978923150        3.4820719601        2.9114989738
 O         -3.1418141902        1.7165864606       -0.1226546809
 H         -2.6533451694        1.0277771399       -0.5935321643
 H         -3.0716027149        2.5246989372       -0.6545846979
 O         -2.3709336417       -3.5598294314       -1.5614866905
 H         -1.5541839310       -4.0767871514       -1.6512424187
 H         -3.0394814051       -3.9346226983       -2.1475677041
 O          1.8467412022       -6.7668120498       -0.6868249852
 H          1.8281040126       -7.6973459129       -0.9041681020
 H          2.7693974336       -6.4472757299       -0.8527324280
 O          3.4454864162       -0.5916727709       -1.7744517330
 H          3.8886309353       -0.5851701116       -0.8970629570
 H          3.9657436402        0.0267674073       -2.3434974430
 O          3.1448462229        1.8621367206        0.9989598892
 H          3.4762797583        2.7864453460        0.9314618579
 H          2.6213739990        1.7598864083        1.8052321309
 O         -1.5056112336       -5.4539777563        3.8547961482
 H         -2.1727564909       -5.7998917029        3.2364440448
 H         -2.0123324184       -4.9629959773        4.5520792656
 O         -4.1742826547       -3.3669008600       -5.6240341773
 H         -4.7156747715       -2.5295240498       -5.6114681862
 H         -4.4861922942       -3.8773927083       -6.3701116865
 O         -9.3483903874        2.8384932749        3.0283405822
 H         -8.7748877592        3.2735597903        2.3617933297
 H        -10.2278499447        3.1729972879        2.8474319372
 O          1.6139906723        0.3177460396       -6.6983458860
 H          0.9222765847       -0.3192638270       -6.4376392059
 H          1.5388355062        0.4366081130       -7.6437639217
 O          4.2754715247       -5.7596326881       -0.9428221465
 H          3.9965592018       -4.8746962486       -0.6040637518
 H          4.4456873022       -5.6239666285       -1.9045920986
 O          5.8100329256       -3.5420941240        2.5746566424
 H          5.9396359220       -3.0953098236        1.7171243324
 H          5.5061994823       -4.4536539612        2.3624204833
 O         -3.8438167732        3.3157560455        4.4378543928
 H         -3.5094025840        3.7295223374        3.6112740302
 H         -4.0465460273        4.0676804041        5.0064569189
 O          3.1507570715        1.0683066981        5.1805991520
 H          2.9250660144        0.2618947314        5.6973069178
 H          2.6056911100        0.9796748665        4.3656301033
 O          9.5474101982       -0.5200691716       -4.0018563542
 H          9.5329605910       -1.2233565795       -3.3293980675
 H          9.9591968291        0.2318981516       -3.5617580212
 O          9.3889682372        2.8971240172        0.2076318179
 H          8.6955531976        3.4797937627       -0.1443733292
 H          9.3655788642        3.0350578967        1.1657982890
 O         -2.5221440541       -3.9483537417        1.0622861871
 H         -1.5660499824       -4.1639741147        1.2124021377
 H         -2.5818483107       -3.7315103581        0.1060136013
 O          3.2233149392       -1.2622332006        2.8081815196
 H          2.8750513082       -2.1607852548        2.7011989793
 H          3.8891210634       -1.3244371764        3.5320841250
 O          8.3554702496        0.4228992611        0.5833024108
 H          9.1315020114       -0.1370093613        0.3674213639
 H          8.6634824771        1.3435274077        0.4671803491
 O         -3.3263378530        4.4873227918        2.0545167409
 H         -2.4489862170        4.1366100055        1.7824308651
 H         -3.9754125359        4.0149985342        1.4770769420
 O          8.2751341082       -3.5983749495        3.5368752005
 H          8.5243635726       -4.5078979897        3.6958765702
 H          7.3654919347       -3.6109175487        3.1508046800
 O         -5.2495481307       -4.8580106882        3.6735432080
 H         -4.6834494096       -4.0566322488        3.5115808265
 H         -5.1857820108       -5.0412366465        4.6116968411
 O         -0.2776049776       -0.2963984669        4.4524640517
 H         -1.2324383069       -0.3715671071        4.3505542462
 H         -0.1167020833       -0.0840546217        5.3912124073
 O         -3.7401527386       -2.7893576756        3.1256220277
 H         -4.4133994603       -2.1413973191        2.8044911436
 H         -3.2478822558       -3.1001287616        2.3339249011
 O         -5.0986611218        5.2583095910       -3.4614761573
 H         -4.1643204503        5.2627613409       -3.7161249721
 H         -5.5640940619        4.7969008713       -4.1782736566
 O         -5.1984156682        3.2558636745        0.7197547267
 H         -6.0840184330        3.5644055270        0.9905450399
 H         -5.2071109447        3.2184534744       -0.2655769167
 O          2.4358246590        6.6213592381       -1.3665115840
 H          2.6253435579        6.6555017692       -0.4179688881
 H          1.4687188761        6.5730353631       -1.4037130464
 O          0.0212759087        0.6625285727        6.9729215827
 H         -0.8804701503        0.9714929748        7.1060519472
 H          0.5754074029        1.4582992039        6.9355207030
 O          5.0005155725       -5.9515881845        1.8107715465
 H          5.0014469635       -6.0452236491        0.8505857970
 H          4.0974576349       -6.1803396130        2.0842063628
 O         -7.1249404017        0.9806258681       -2.4046289412
 H         -7.9006977679        0.3903526916       -2.3624541127
 H         -6.5845227603        0.8742802365       -1.5986399746
 O         -1.5519790580       -1.3896050065        1.8680301274
 H         -2.4308608084       -1.3912847386        1.4399204643
 H         -0.9665548250       -1.7463059372        1.1723850822
 O          3.2656393407        2.9158114114       -1.8512008777
 H          2.6691511321        3.2982724050       -1.1778434163
 H          4.1000326547        2.6516793023       -1.4104542858
 O          2.7604984204        4.9297488022       -3.5618841959
 H          3.0767366985        4.1897664248       -3.0002961535
 H          2.7103661918        5.6862608092       -2.9603967844
 O          2.1976856062        1.4222938981       -3.7641072375
 H          2.6145646844        1.9355790043       -3.0431460219
 H          2.3725065903        1.9365110851       -4.5760874621
 O          4.0713481836        4.3006683268        0.6659152073
 H          3.3955287368        4.9733700978        0.9087110241
 H          4.8323377865        4.4573155308        1.2565380186
 O          6.6940071709       -0.3159777210       -1.2868050250
 H          6.0071285438        0.3714916035       -1.2508563367
 H          7.3348401250       -0.0362099120       -0.5841780023
 O         -5.2408968225       -1.5300003689       -2.3325567601
 H         -6.0765889080       -1.6456208689       -2.8237058276
 H         -5.3750866443       -0.8215739873       -1.6895564374
 O          3.5338732117       -3.3803947840       -0.0229474722
 H          3.1049459205       -3.4528541724        0.8472767196
 H          4.4137200320       -2.9485008585        0.0838858804
 O         -0.6160882231       -1.1517265730       -5.9509329562
 H         -0.5733149910       -0.5492118317       -5.1698759513
 H         -1.4199968264       -0.8726316850       -6.4141502251
 O          3.8448005716        5.8988357680        3.7704925221
 H          3.0805302292        6.0091961963        4.3580643380
 H          3.9837779329        4.9338673671        3.7251161630
 O          2.3104798104       -6.3378456803        2.0050578755
 H          1.6154687741       -6.7904153797        2.5298842144
 H          2.0559460850       -6.4651996697        1.0728458072
 O         -3.1668230993        1.6096200389       -3.1290679030
 H         -2.7560880143        1.7923911583       -3.9891629497
 H         -2.8144550929        0.7620159483       -2.7988974800
 O         -0.3956449191        2.4461455934       -2.1107569881
 H         -1.2062631947        2.8999485552       -1.8286652457
 H         -0.6452276713        1.7871040180       -2.7897235123
 O         -3.1923320885       -1.0867642473       -3.9465136994
 H         -3.9703625383       -1.2455596409       -3.3696868933
 H         -2.6641077885       -1.8901129540       -3.9092712707
 O         -3.0960546093       -0.4670283028        4.4922615855
 H         -4.0125485846       -0.1746396483        4.6189363350
 H         -3.1451820875       -1.2739615191        3.9604156020
 O         -2.4592721096        1.6713781577        6.0611615559
 H         -2.6022798356        0.8002304725        5.6598110744
 H         -3.0525302163        2.2725123468        5.5724765233
 O          9.9572474293       -1.8018149799        2.2274356763
 H          9.4152913542       -2.5050997696        2.6144526774
 H          9.7195374792       -0.9928740498        2.7086500474
 O         -0.3348370037       -2.7705394158        6.1120753113
 H          0.1452573766       -3.5575670121        6.3826599615
 H         -0.1323001230       -2.6510387409        5.1611984465
 O          5.4455817705        2.6376660113       -6.0968861211
 H          6.3206830730        2.2378275713       -6.2198265430
 H          5.5016146864        3.0425567935       -5.2101471209
 O         -5.4961985246        0.7179425949        5.3223688440
 H         -5.8854984555        1.4483869564        4.8059651860
 H         -5.1352932963        1.1088047804        6.1189835422
 O         -2.1294986552       -0.3482074775       -1.5181981254
 H         -2.6749385005       -0.9587410277       -0.9885741193
 H         -1.5479344362       -0.9076951517       -2.0664213844
 O         -5.1405986127       -3.5237350296       -0.4160192624
 H         -5.0204365949       -3.3211156295       -1.3542857137
 H         -5.1730545255       -4.4978777774       -0.3085289903
 O         -7.5270833102       -3.6250920273        2.7001717144
 H         -6.7680951998       -4.1474323905        3.0188954311
 H         -7.7348571288       -2.9999879631        3.4056282640
 O         -9.1360807570        0.0441063173        2.8238372508
 H         -9.3730605219        0.9326518831        3.1302458788
 H         -8.6570277056       -0.4196204494        3.5385996019
 O         -1.3079471719        5.3252848849        4.3659308533
 H         -1.2226482232        4.3538879305        4.2649452546
 H         -0.4602174205        5.5906433959        4.7650876482
 O          8.4089445417        2.7140643139        2.7273545939
 H          8.6669414975        1.8285129757        3.0554539207
 H          8.1212590931        3.2098911167        3.5040564607
 O         -5.2572179567       -6.1696363613       -0.0509139463
 H         -4.8437464188       -6.5537734676       -0.8574652257
 H         -4.6698364874       -6.3873744087        0.6918241186
 O         -1.2448957006       -7.2121410019       -2.1234178978
 H         -0.8751913046       -6.5775436364       -2.7882023994
 H         -1.1116174483       -8.0822091448       -2.4997484337
 O          6.9568700512       -4.6733692935       -1.1186328766
 H          6.2490404578       -5.3248841535       -1.0591666722
 H          7.1535709561       -4.5602630738       -2.0604471031
 O         -2.7354581403       -3.8441584555        5.5224615555
 H         -1.9571007465       -3.3803603771        5.9032153374
 H         -3.0952857211       -3.2466156689        4.8539965706
 O         -1.0882039099        3.4579990001        1.0805761768
 H         -1.2737028612        3.5141758708        0.1381369002
 H         -1.2601300128        2.5336349770        1.3624407067
 O          2.1882212179       -3.2693151804       -2.3146168335
 H          2.2005573145       -2.3810685906       -2.7149967590
 H          2.7284934371       -3.2429427948       -1.5041501343
 O         -6.6409806805        2.7490620625        3.8796992272
 H         -6.2743809402        3.6444356915        3.7302455605
 H         -7.5955439367        2.8563842706        3.9596182205
 O          1.3578793190        3.7936999920       -0.2179936065
 H          0.8368998692        4.5418757162       -0.5362721792
 H          1.3482143045        3.8331659269        0.7503963523
 O          6.6609521357        3.6485662231        4.5915926645
 H          6.3661457337        2.7076618698        4.6471542464
 H          6.5121552110        4.0337038521        5.4540255481
 O          6.5483666807       -0.4189603442        2.4187444357
 H          5.9711273387       -0.7900707346        1.7343019412
 H          7.4009828878       -0.2599253569        1.9808785941
 O          2.8295227106       -3.5960390250        5.0736559242
 H          2.2192778406       -4.2549887210        5.4342024206
 H          2.7124039387       -3.6644514605        4.1078736195
 O         -2.5287089158        4.5853002098       -4.0626610754
 H         -1.5730475809        4.7556923344       -4.1053875225
 H         -2.7049189763        3.8644545279       -4.6865378181
 O         10.3829541343       -1.0700243616       -0.2990797471
 H         10.4623830376       -1.4850585534        0.5812305636
 H          9.9062240714       -1.7015930217       -0.8606889757
 O          4.2410751296        0.1989535662       -5.9106870387
 H          3.3005820456        0.2986325856       -6.1437818586
 H          4.6715227074        1.0354596468       -6.1691023252
 O         -9.3829089604       -0.5088052844       -2.5146373237
 H         -9.6127936896       -0.7622883644       -1.6093169405
 H         -9.8857666187        0.3132816254       -2.7055103041
 O          2.5082194452        6.2808296679        1.4420733662
 H          1.5650732738        6.1635119591        1.6602558907
 H          2.9805012333        6.3420679158        2.2960139162
 O          7.7738274175        1.7421514239       -2.9079749278
 H          7.2743691859        0.9736431593       -2.5841107135
 H          8.6754204390        1.6429045376       -2.5499297678
 O          7.3741911501       -4.0269396577       -3.8279106405
 H          6.6304111495       -4.5991985879       -4.0543321134
 H          7.2208470747       -3.1861685314       -4.2861981099
 O          5.6721364576        3.4134931718       -3.4977449680
 H          6.5499803159        3.0932069130       -3.2388854485
 H          5.4370598912        4.1492300682       -2.9061595201
 O          4.9695204812        0.7625473683       -3.3579342735
 H          4.7068788211        0.5201449342       -4.2640720809
 H          5.0901808183        1.7252025483       -3.3455480461
 O          0.1770165040        4.3752687248       -3.8894743373
 H          0.0898320326        3.7220465913       -3.1630216180
 H          1.0986939914        4.7008402510       -3.8285907762
 O         -0.0041179407        2.7894293204       -6.0052991699
 H          0.0733408388        3.4806791653       -5.3052557160
 H          0.9026674446        2.6474159630       -6.3048869589
 O        -10.2980109755        2.0086192207       -2.5709994190
 H         -9.7023077561        2.5852332874       -3.0714991897
 H         -9.9329826729        2.0405640158       -1.6718244277
 O          4.9465707393       -2.4005840700       -3.0830274304
 H          5.7047808024       -1.8748675540       -3.3917028459
 H          4.3874740782       -1.8017337865       -2.5469188062
 O          5.8660784535        1.1136279428        4.7079583818
 H          6.1615374421        0.4120359006        4.1118761672
 H          4.9736871990        0.8772757703        5.0031880850
 O          0.1958849310       -7.5059398328        3.1264148268
 H         -0.2146206503       -7.7973998189        2.3029648069
 H         -0.3861518334       -6.8038656059        3.4586437005
 O         -9.0453106638        1.8368250828       -0.1260833397
 H         -9.2640046799        0.8883038017       -0.0171205718
 H         -8.2194660310        1.9514538773        0.3739974289
 O         -5.2214140456        3.0131964773       -1.9002359924
 H         -4.4766510234        2.5317746302       -2.2891485950
 H         -5.2613442674        3.8689286557       -2.3597836043
 O         -5.4622550559        0.4724948787       -0.3498012813
 H         -4.6830836176        1.0814684458       -0.3204410596
 H         -6.0465295922        0.7444970530        0.3857365817
 O          3.6863049355       -2.4998494289       -5.4664722334
 H          4.2061525391       -2.5376780192       -4.6329055490
 H          4.0534189262       -1.7517278074       -5.9514923113
 O          5.8842785118        2.1145243722        1.9446533307
 H          5.9932075388        1.1640731689        2.1749193950
 H          6.7759858008        2.4836170383        2.1008122361
 O         -5.7217460261        6.0550008505       -0.8804578592
 H         -6.6715673203        5.9342287620       -0.7693535239
 H         -5.5645204597        5.9458368079       -1.8291662807
 O          3.9674414981        3.1588116468        3.4967328672
 H          4.6818583490        2.7955883100        2.9225313216
 H          3.9238853031        2.5761384008        4.2634909985
 O          2.2820603619       -4.7889557329       -4.4901530080
 H          2.5320550357       -4.1653174228       -5.1813219618
 H          2.2020380356       -4.2479491415       -3.6735162272
 O          4.7795048397       -5.0683365365       -3.4369740343
 H          3.9562254118       -5.1869433185       -3.9439765601
 H          4.8240715977       -4.1119650907       -3.2341011176
 O         -3.1128656803        6.1575731618       -0.1281573241
 H         -4.0457950057        6.2855068160       -0.3709266362
 H         -3.1272104588        5.8428795210        0.7908594388
 O         -5.7144513220        5.2977742497        3.3693309291
 H         -4.9660116832        5.1936846072        2.7655330109
 H         -5.3297269717        5.7160022395        4.1502548851
 O         -0.3820566699        0.8460270123       -4.2161594465
 H         -0.4013158884        1.5067616522       -4.9428379756
 H          0.5654171504        0.8351012990       -3.9798489365
 O         10.2351670651        1.2449631094       -1.8528354332
 H         10.4414112025        0.4368616463       -1.3548388379
 H         10.2366748331        1.9552341359       -1.1963312856
 O         -7.2705308291       -4.5436536769       -2.4711919773
 H         -7.6693941640       -5.3381876545       -2.8266228646
 H         -7.4545996881       -4.5744895912       -1.5039228278
 O          6.9602779654       -1.3140827419       -4.5211236314
 H          7.8705410367       -1.0044447372       -4.3548495137
 H          6.5858017909       -0.6522985325       -5.1127001804
 O         -9.3846163708       -0.8102842110        0.2200441714
 H         -9.6567848837       -0.7352459276        1.1440398380
 H         -8.4993941331       -1.2296143623        0.2580141218
 O         -7.0721319887        1.2418755256        1.6105181926
 H         -6.7954709738        1.8164816049        2.3440632689
 H         -7.7813831009        0.6715198596        1.9697673346
 O          7.7374446775       -1.4059837938        5.1424945620
 H          6.7689114346       -1.4118805394        5.0849631768
 H          8.0278174585       -2.2143520264        4.6897121059
 O         -1.1803795334       -7.2681694356        0.6718741859
 H         -2.0811809172       -7.1331232539        0.9886944146
 H         -1.2066028564       -7.2393574330       -0.2990342020
 O         -0.0890350127       -4.8367950388        1.2438870233
 H         -0.3318945833       -5.7677988218        1.0986340537
 H          0.1652484159       -4.4928092117        0.3701233575
 O         -4.3162133569        1.4212504866        2.4700147808
 H         -4.3900804684        1.9405287128        3.2807629419
 H         -4.5978800320        2.0023706721        1.7330236004
 O         -5.4659635934        1.0654733516       -4.4417873978
 H         -6.1288552935        0.9972688239       -3.7162357908
 H         -4.6082079389        1.1908994401       -3.9841690130
 O          5.5736785681        2.1281794403       -0.7072010683
 H          5.5713377642        2.0859888589        0.2723329678
 H          6.2376451699        2.8067054844       -0.8936213774
 O         -2.6607281272        2.3558921413       -5.7137764617
 H         -1.7945906789        2.5466219240       -6.0997955883
 H         -2.9342749551        1.4918046609       -6.0786802767
 O          7.6904182620        1.2178446350       -5.5736186806
 H          7.7339473736        1.4539444437       -4.6218874444
 H          8.5521178631        0.8581343599       -5.7887350632
 O          1.3839737971        2.9130831704        6.0078579071
 H          0.7074838825        2.7482707452        5.3258085436
 H          2.1267070472        2.3084243254        5.8075580830
 O         -3.9644380991       -6.8794875465       -2.2456057989
 H         -4.1129541804       -6.0392850722       -2.7118211102
 H         -2.9997723180       -6.9872916242       -2.1758533218
 O        -10.6504992023        3.9462574351        0.2960810269
 H        -10.1057047628        3.1337491213        0.2259294431
 H        -11.4043174880        3.8108567372       -0.2789678918
 O         -7.5087202517       -2.0966928125       -3.6670483141
 H         -8.2728041984       -1.5765890969       -3.3655710053
 H         -7.5955237089       -2.9836200747       -3.2805850241
 O          5.0485377987       -1.9237080063        4.5870917533
 H          5.3860845308       -2.5319706032        3.8972076463
 H          4.4945334742       -2.4620009345        5.1651917662
 O          9.1531759425        0.3505380789        3.8196077964
 H          8.5196420569       -0.2329512888        4.3217097988
 H          9.8884779222        0.5018106994        4.4133859265
 O         -8.0037753862        3.4754237940       -2.9660243199
 H         -7.5085946117        3.6988834405       -3.7639679822
 H         -7.5827783419        2.6564122152       -2.6302552859
 O          6.0154748868       -2.5280646542        0.1022703629
 H          6.4718603850       -3.2738980889       -0.3473379190
 H          6.1970702742       -1.7195053267       -0.4194370064
 O         -8.4005207659        5.0909516637       -0.8339153280
 H         -9.3271324187        4.9371110835       -0.5845763199
 H         -8.2335531170        4.5222915490       -1.6173443063
 O          0.8033110766       -5.4184931962        5.5832024841
 H          1.0728319625       -6.3367679347        5.6233987682
 H          0.0638622947       -5.3821743619        4.9603553524
 O         -7.5659541220        4.2049631082        1.4911096074
 H         -7.8807444786        4.5583543002        0.6209845553
 H         -7.2613490779        4.9521980051        2.0157231641
 O         -4.5806012006       -4.3754652163       -3.1318087752
 H         -5.5394816115       -4.4188983198       -2.9698391044
 H         -4.4608678836       -4.0137508750       -4.0279662201
 O         -6.2631921561        3.4973709955       -5.1880625518
 H         -6.3891515438        3.5221742290       -6.1350207252
 H         -5.9197725466        2.5953881133       -4.9686046174
 O         -0.3263364474       -5.7485480529       -4.1394853853
 H         -0.7914912106       -4.9196155881       -4.3358792158
 H          0.6136760281       -5.5641187052       -4.2956149714
 O         -7.3740329785       -1.2546011610        4.4084451196
 H         -6.6500350298       -1.1438076769        3.7461501859
 H         -7.0466901263       -0.7856467013        5.1806807728
 O         -5.7886709644       -1.3043262858       -5.6586523796
 H         -5.6076685882       -0.4257782986       -5.2561826527
 H         -6.5308298964       -1.6482263461       -5.1383568405
 O         -3.4877397018       -6.1533130724        2.0233649964
 H         -3.1894340785       -5.3033437349        1.5951410687
 H         -4.2016487219       -5.8916561070        2.6316378856
 O          4.4474020706       -0.3990964975        0.6503839772
 H          4.1827148083        0.5345078512        0.7415195106
 H          3.9741671399       -0.8439488070        1.3818461260
 O         -7.0091240169       -1.9701115412        0.6403512131
 H         -7.3162125885       -2.5726451959        1.3468369602
 H         -6.4003257555       -2.5221537677        0.1051472121
 O         -5.5000886540       -0.9555682733        2.5661268913
 H         -5.0938409902       -0.0646958151        2.4897538290
 H         -6.0154279220       -1.1384171870        1.7512164262
