  87
       -142.30545194
 H         -2.0516021801        0.7408672954       -0.0201588351
 C         -1.8752525712       -0.0348368105       -0.7678462123
 H         -2.6567841865       -0.7940953254       -0.6883853639
 C         -0.5214214864       -0.6907545090       -0.5173610910
 H         -0.2966956654       -1.4027864504       -1.3086471874
 H         -0.5387946539       -1.2076557221        0.4389357485
 O         -1.9214474471        0.6003706314       -2.0241620257
 H         -1.9296597992       -0.1067352822       -2.7108372497
 N          0.5333332034        0.3311262108       -0.4990302169
 H          1.4547708624       -0.1152827929       -0.2840704875
 H          0.3171160693        1.0509981844        0.2256138393
 H          0.5976261840        0.8254317871       -1.4135357197
 O          3.7349904312        1.2898746983        1.5689912124
 H          3.3613800800        0.5089380770        1.1069807796
 H          4.1053675266        0.8906028940        2.3730085725
 O          1.1674834305        2.0962860008       -2.4844050138
 H          2.0522633642        2.2352165330       -2.1202437266
 H          0.6366558345        2.8701360553       -2.2063110023
 O         -1.3696294916       -3.6232214078       -1.6689106096
 H         -1.6309015544       -3.4398885666       -0.7400907299
 H         -1.8195983600       -4.4332210576       -1.9158454186
 O          2.4481363174       -3.3064021069        0.8015646280
 H          1.9649638534       -3.5405207807       -0.0453207992
 H          3.1153059151       -3.9835645202        0.9188409631
 O         -4.1847482175        2.8419660668        0.3429648137
 H         -3.5607670029        2.6768518066        1.0991879771
 H         -4.8318146132        3.4736758795        0.6593207785
 O          1.8041417966        2.6819187006        2.7618806838
 H          2.5634479636        2.2247108154        2.3283963283
 H          2.1342712187        3.0795572139        3.5675272764
 O         -2.6319935321        3.2316819627       -1.9015325846
 H         -2.4400526618        2.2976516752       -2.0964677872
 H         -3.2207735183        3.2150050355       -1.1267371396
 O         -4.1652070544       -1.3541442378        1.3915295534
 H         -4.9223559113       -1.6557939591        1.8964657344
 H         -4.5225652212       -0.7266876588        0.7193739094
 O          1.3695800540       -3.7435208755       -1.5063090358
 H          1.6043972966       -2.9409135624       -2.0061071971
 H          0.4001836988       -3.8091667172       -1.5586472856
 O         -0.2614174766        4.1281255371       -1.4153904778
 H         -0.2260649943        5.0579253157       -1.6413158224
 H         -1.2003662132        3.8284019489       -1.6213085438
 O          1.8436806114       -1.3105212437       -2.6344762964
 H          2.7408947919       -0.9613057080       -2.6892532690
 H          1.3561381937       -0.9119473671       -3.3691820436
 O          1.6658780927       -1.9408005738        3.0712410865
 H          1.9261220757       -2.4667745189        2.2970425509
 H          1.2863749756       -1.0995414535        2.7184308937
 O          0.4876373780        0.2715214491        2.2510267648
 H         -0.4481312164        0.1653469939        2.5010880980
 H          0.8138582978        1.0787349420        2.6720025892
 O         -2.4398043967        2.3677734353        2.2408797200
 H         -2.4127258448        1.4867152158        2.6360096197
 H         -1.5851438297        2.4964006817        1.7877486022
 O         -2.0860692174       -0.3609020522        2.8662232275
 H         -2.8388802935       -0.6404017793        2.3123088395
 H         -1.7572217345       -1.1830828973        3.2653980587
 O         -2.0810453747       -3.1366435466        0.8732698302
 H         -1.6116332879       -3.1373464209        1.7214592793
 H         -2.8757384094       -2.5979861633        1.0070104590
 O          2.9225631068       -0.7844348254        0.1100143285
 H          2.8230047175       -1.7218388144        0.3834132132
 H          3.4730703350       -0.7687938570       -0.6876842596
 O          0.3715221691        0.1942700566       -4.3817592822
 H          0.5244039689        0.9675431203       -3.8132668775
 H          0.2004375358        0.5267955364       -5.2635535444
 O         -1.7822927525       -1.5722510565       -3.5726949288
 H         -0.9653013021       -1.3548653655       -4.0354166809
 H         -1.6105715485       -2.3425331628       -3.0075866529
 O         -0.1147803719        2.6436440919        0.8442586169
 H         -0.1255228454        3.2939995356        0.1192118996
 H          0.5593084334        2.9121797689        1.4867384265
 O         -5.1100041040        0.3932287110       -0.3674424066
 H         -5.0053852710        0.3163168952       -1.3172055448
 H         -4.8256582594        1.2984993204       -0.1277502686
 O          3.9231591393       -0.4245747389        3.6691887266
 H          4.4027068552       -0.7442789060        4.4331456483
 H          3.1565921261       -1.0179902082        3.5516749468
 O          4.3100234992       -0.0405742825       -2.1558410789
 H          5.2170438186       -0.0800965597       -2.4611280270
 H          4.1324621827        0.8760526809       -1.8745491117
 O         -0.8639721734       -2.7950944550        3.3947541808
 H         -0.9658361051       -3.4325407864        4.1021057121
 H          0.0922004894       -2.5555097916        3.3639483839
 O          3.6343241480        2.3747104043       -1.0032127450
 H          3.6948092903        2.0955528777       -0.0716420412
 H          4.1367336909        3.1881686570       -1.0751523898
