  300
       -509.24275532
 O          2.0405459105        5.7623205676        0.0475020121
 H          1.8564910783        5.0934572956        0.7488053843
 H          1.2095159729        6.2127091011       -0.1434448752
 O         -1.2281667236        0.4445794016        0.7455934562
 H         -0.4007703029        0.8352839698        1.1085155723
 H         -1.8027969154        0.2106182022        1.4788640284
 O          1.9633812670       -3.7968104053       -5.8222041533
 H          1.4820729685       -3.1646601436       -5.2531482939
 H          2.6936078391       -3.2917124401       -6.1937496108
 O         -2.2837973077       -4.6491210612       -3.1846316411
 H         -1.7787767056       -4.3572166864       -2.3938435355
 H         -1.6343816264       -4.8280470568       -3.8780838540
 O         -2.0956682684        1.4435525640       -3.4563215729
 H         -1.1726170281        1.3930929931       -3.7840325235
 H         -2.0462367464        1.6678684096       -2.4982595873
 O          1.0568703232        1.4689681059        1.7954246137
 H          0.9184251367        1.4867570071        2.7635992761
 H          1.9290785723        1.0765399965        1.6618722682
 O          1.3771866019       -3.7141935191       -2.1863520655
 H          0.5729051231       -3.9287656896       -1.6736042548
 H          1.8936195075       -3.0497219571       -1.6577741643
 O          4.8891662481       -3.7220521902       -0.9411893885
 H          5.3791293347       -3.7723307325       -1.7655606220
 H          4.4395840982       -4.5917205870       -0.8363287697
 O         -2.1359414787        2.2363718114       -0.9589358203
 H         -1.8766273622        1.4935942620       -0.3664068252
 H         -3.0844293015        2.3910592142       -0.8213902913
 O         -5.3986289961       -0.0561856653        0.3959609517
 H         -6.0214866392        0.0441404277       -0.3507991236
 H         -5.4641280680       -0.9866291695        0.6860797525
 O          0.4546856378       -6.5513503247       -3.0198286342
 H         -0.1105586272       -6.2652084372       -3.7438508709
 H          1.3621239454       -6.4135282015       -3.3230691237
 O         -0.6169470027       -1.2742938130       -1.1734687546
 H         -1.1466746625       -1.2756919979       -1.9960839185
 H         -1.1554598540       -0.8226400936       -0.4969595542
 O          0.0782942245        2.0658015076        7.7424079763
 H         -0.8438370841        2.0355283397        7.4450612524
 H          0.4677033712        2.8223731809        7.2736258502
 O          4.1821011428        1.0030378583       -1.5588570616
 H          4.9987352605        1.3963395968       -1.1769493387
 H          4.4866325003        0.1910170618       -2.0059823291
 O         -4.0278084170       -5.6865190125       -1.3586442612
 H         -3.4725091771       -5.7221118997       -2.1500498699
 H         -4.1987574470       -4.7309910607       -1.2497058549
 O          7.1403328620       -0.7629620569       -0.7164064171
 H          6.6163501553       -1.0987083601        0.0296933957
 H          7.1378864851        0.2008040043       -0.6306804005
 O          5.4623426573       -0.3372375833        4.2016354918
 H          5.2773685015       -1.2651665327        3.9980110526
 H          5.1626652262       -0.1881931545        5.1118230608
 O          1.3740492685       -3.8897588710        0.8515139545
 H          0.6101967936       -3.9682048763        1.4691165251
 H          1.4942424599       -2.9193751123        0.7611443614
 O          0.2117815057        5.5032341950        3.8098302033
 H          0.8044764462        4.9421222201        3.2616460616
 H         -0.2485624773        6.0433498348        3.1539469305
 O          0.2368594965        3.7642621199       -5.3745818227
 H         -0.5621539959        3.3980132275       -5.7820824039
 H          0.1860537120        3.5441226949       -4.4233953723
 O          1.0854311855       -6.2733034912       -0.3452132218
 H          1.0598631510       -5.3283630176       -0.0955291427
 H          0.6798826620       -6.3591419142       -1.2236350764
 O          3.4447246144        0.1496594347        0.8374677084
 H          3.5388122186        0.4828966192       -0.0812359526
 H          4.0514833453       -0.6247084959        0.8878760881
 O          5.4717406988       -1.0169166257       -2.7259507472
 H          6.1981085231       -1.0177375792       -2.0552532177
 H          5.3202135635       -1.9323283725       -3.0112906377
 O          3.0866296603        0.8642310245        3.6133124459
 H          3.1030642817        1.6477503272        4.1867904271
 H          3.9695064669        0.4702111279        3.7023998215
 O         -2.5412910694       -2.5409488686        4.3112105159
 H         -1.7842377406       -2.2023798023        3.8093933869
 H         -3.0060453191       -3.1547432697        3.7250559870
 O          2.9069510863       -1.8964638377       -1.1646496041
 H          3.7032200812       -2.4504445085       -1.0971700966
 H          2.9831027310       -1.3597454096       -1.9697554244
 O         -3.9876820773       -2.9896210558       -0.8446182135
 H         -4.8123930049       -2.8935718269       -0.3536260619
 H         -3.2827297795       -2.9272020190       -0.1563161927
 O         -0.3646478169       -6.7975670009        1.9411645950
 H          0.2673973055       -6.7744725060        2.6883012344
 H          0.1926796520       -6.7983793928        1.1419741034
 O         -2.4093834071       -5.4801121883        0.6836312053
 H         -1.8973251401       -6.2335493239        1.0049794644
 H         -3.0233634525       -5.7656049097       -0.0384900460
 O          2.1486076482        2.9163677388       -0.3721823335
 H          3.0902858264        3.1040200128       -0.4923004831
 H          1.9637285498        2.0425950409       -0.7426249202
 O         -0.5948762060       -1.3166151422       -6.4512826831
 H          0.1869883792       -0.9923013678       -6.9442655354
 H         -0.2152877011       -1.7664159054       -5.6776152884
 O          1.1918033541       -1.2902715131        0.8612036438
 H          0.7475063062       -1.2058255288        0.0093850349
 H          2.0163267488       -0.7661390407        0.8137578554
 O         -0.8066435135       -1.5411032829        6.2302258624
 H         -1.5435967717       -1.8387839285        6.7640903032
 H         -1.1953050540       -0.9308320454        5.5678426621
 O         -1.7530753959       -1.2224697590       -3.5494117156
 H         -2.5179091461       -1.7680621630       -3.8286408160
 H         -2.0188426292       -0.2801245303       -3.5327595181
 O          1.8036217115       -0.3679031917       -7.1512072421
 H          2.5539605870       -0.9209753051       -6.8973621821
 H          1.9803425899        0.5128407998       -6.7785338512
 O          5.2298570302       -1.8034803671        1.0116183862
 H          5.1429281584       -2.5565367943        0.4074445773
 H          4.9959505153       -2.1488657598        1.9027852380
 O         -3.0181677331        0.2657189068       -6.0024092507
 H         -3.5278766493        0.1750822008       -5.1802096852
 H         -2.2943102410       -0.3725112151       -5.9750719960
 O          0.3276197866        3.1737569583       -2.7048932825
 H          1.1262747668        3.6879317306       -2.4935493524
 H          0.5007671309        2.2694888071       -2.3562585866
 O          4.3345606504        3.8499200102        2.9704571656
 H          4.7712602556        3.0567184008        2.5997492349
 H          4.2253316730        3.6674109592        3.9161609724
 O         -1.3228146949        2.5568777651        2.5270803561
 H         -2.1864501239        2.3298274669        2.1437469058
 H         -0.8402603214        3.0453811052        1.8350024151
 O          4.8912945565       -3.4236269191       -3.8666564629
 H          4.2518188580       -4.1545349452       -3.7374978042
 H          4.6429169518       -3.0052485084       -4.7000623929
 O         -6.5898619344        3.5503867270        1.4351855748
 H         -6.0850811003        3.3676436079        0.6279215256
 H         -6.0177624407        4.0585238655        2.0195999436
 O          4.3283250610       -2.7619940023        3.3163357302
 H          3.4679821063       -2.3568301629        3.5715649636
 H          4.1031077512       -3.6575876261        3.0098299905
 O         -2.2195199699       -2.3640594653        1.0185572524
 H         -2.6871251380       -1.7538300708        1.6104053254
 H         -1.7010246755       -2.9596673920        1.5836280120
 O          1.3599779964        0.1105846427        6.4990519775
 H          0.9353048141        0.7804011836        7.0886748069
 H          0.7492963767       -0.6437320097        6.4740637613
 O          5.4100106208        1.5335894781        2.0508416090
 H          5.7476218250        0.9531072087        2.7448859854
 H          4.5938857309        1.0971353582        1.7110978491
 O          2.6041994939       -0.5244598463       -3.4918035369
 H          3.1691252753       -0.1638795868       -4.1851471152
 H          1.8654853229       -1.0189514932       -3.8973513986
 O          0.6172675839       -2.1999222743       -4.1411831755
 H         -0.2144712980       -1.7723201847       -3.8434453092
 H          0.8613830275       -2.8072731362       -3.3897471271
 O         -3.8383821560       -4.2819601529        2.5576598215
 H         -3.2428457800       -4.6840232258        1.8792690591
 H         -4.2660852037       -5.0024225531        3.0183530178
 O         -0.9793511879        6.1674841546        1.3780718899
 H         -0.7583374373        5.2665215871        1.0577204128
 H         -0.7888528586        6.7396301053        0.6247501733
 O         -0.3506574246       -1.3102956987        3.0003106377
 H          0.0754149825       -1.2629306440        2.1184048537
 H         -0.5751104586       -0.4177663605        3.2770557142
 O         -0.2624180314        6.9576196110       -1.1793458415
 H         -0.3521365586        7.7523357047       -1.7030944125
 H         -0.7271101808        6.2445588771       -1.6618897027
 O          3.6064598393        2.8687443364        5.4190075037
 H          3.8438486399        2.1536841122        6.0244411593
 H          2.7567140333        3.2514611735        5.7178289565
 O         -3.8342342061        5.3589348297       -1.1635362848
 H         -2.9378298629        5.1763265731       -1.5431396042
 H         -4.3229959691        5.8379285985       -1.8324011695
 O          2.8939270884       -5.2492268057       -3.6769413210
 H          2.5834847523       -4.9547987234       -4.5511676363
 H          2.3577253473       -4.7195628630       -3.0378110703
 O         -4.2815677039       -1.0278449557        5.7810461911
 H         -4.2078608823       -0.1028574741        5.5100674646
 H         -3.5945680931       -1.5324584336        5.2998566984
 O         -3.7129470237       -2.7856512895       -4.4121358151
 H         -3.3824745732       -3.5253529665       -3.8525836747
 H         -3.4208080427       -3.0076716845       -5.3084635700
 O          4.6529876423        5.7885618973        1.0254240288
 H          3.7388218434        6.0339400599        0.8210508593
 H          4.6163731107        5.2463020572        1.8299871279
 O          4.8565838769        0.3170837178       -4.9345353301
 H          4.7116543505        1.2490769859       -4.7353810302
 H          5.2607416334       -0.0787465042       -4.1316329273
 O         -2.3115825119       -3.3482358767       -6.7897227906
 H         -1.7130051119       -2.5702863064       -6.7949267516
 H         -2.7101428637       -3.4015531482       -7.6574815316
 O         -4.8213506937        2.9127858713       -0.7317651028
 H         -5.1116292337        2.6515847135       -1.6350124266
 H         -4.5219703233        3.8396851076       -0.8242150701
 O         -5.8910578731       -1.3507011911        3.6884393206
 H         -6.3866661934       -0.5279751034        3.5944234730
 H         -5.4921421887       -1.3491743399        4.5860146840
 O         -0.5810306159       -5.0488592019       -5.3440380678
 H          0.2930145568       -4.7733361286       -5.6454677946
 H         -1.2191411751       -4.6040771488       -5.9218037506
 O          6.4252700041        1.9143887016       -0.3966551321
 H          6.2030121976        1.8097056259        0.5510476045
 H          6.1323055402        2.8136556212       -0.6161272242
 O         -6.7587077629        0.2038987127       -1.9167298241
 H         -7.0151498844        1.1030653104       -2.1306372068
 H         -6.1247196262       -0.0616577758       -2.6057981237
 O          0.1736525771        0.7026508035       -4.5415129445
 H          0.9460114834        1.1843329839       -4.8964348984
 H         -0.2113707141        0.2311321382       -5.2860293386
 O          2.1758200313        1.9932420611       -5.7442592931
 H          2.7889708384        2.2214973686       -5.0159490613
 H          1.5679984915        2.7627574548       -5.8117004295
 O         -6.4392134375        1.1184414354        2.6345482302
 H         -6.0592973422        0.7125345909        1.8286740833
 H         -6.7248266887        2.0021546826        2.3410383944
 O          3.6893331264       -6.0956475208       -0.9348949702
 H          2.7597797769       -6.2380050692       -0.6405197314
 H          3.6736926697       -6.2363329489       -1.8857343920
 O          4.7368877764        3.9430859666       -0.8541847488
 H          4.4699619377        4.4036490509       -1.6523426772
 H          4.7924116187        4.6318984244       -0.1463259114
 O         -0.9392907035       -3.9681601794       -0.9747427978
 H         -0.9852447290       -3.0194453389       -0.7551055090
 H         -1.3993248581       -4.4585596608       -0.2651155089
 O          2.0769231353       -1.5668303118        4.0944310130
 H          1.2031823311       -1.5501237955        3.6538717352
 H          2.3932693314       -0.6430784311        4.0269873990
 O         -0.6750632654       -4.1219831325        2.5024350845
 H         -0.7421300648       -5.0896533286        2.4161190461
 H         -0.3344205478       -3.9346481879        3.4015060722
 O          1.4491699374       -6.1329508584        3.8264167243
 H          2.2078724883       -5.7933932363        3.3212372491
 H          1.1323683229       -5.3987145725        4.3677979973
 O          0.4627030254       -3.6592526004        4.9204038836
 H          1.2377635363       -3.0981577352        4.7747225209
 H         -0.1555367875       -3.0820085233        5.4006109480
 O         -5.6111850371       -2.6177500278        1.3417928002
 H         -6.0419486347       -2.2647059371        2.1345225955
 H         -4.9301808646       -3.2119062909        1.7158295203
 O          3.3611246603       -5.0248237863        2.1223567584
 H          3.8038608885       -5.5994560240        1.4956921124
 H          2.6390582187       -4.5740654153        1.6085654393
 O         -2.0463965861        2.6737247152       -6.5860996781
 H         -2.4023118474        1.7870853583       -6.3339992980
 H         -2.0312761396        2.6939321364       -7.5417081062
 O         -4.6185061996       -0.2454061780       -3.6702456780
 H         -4.6267849804       -1.1734169869       -3.9441588642
 H         -4.0799490536       -0.2244606768       -2.8301898913
 O         -5.3425183386        2.4509745645       -3.3012900933
 H         -5.0920297857        1.5603727719       -3.5840098156
 H         -4.6847618721        3.0402962510       -3.7106877413
 O         -1.5882313512        4.9735699408       -2.4764363909
 H         -0.9287502178        4.2499901316       -2.3737367947
 H         -2.1066148244        4.6961099319       -3.2598059613
 O         -3.6761996944        6.1368871485        1.4909728292
 H         -2.7039035724        6.2160387753        1.5702959933
 H         -3.8347059841        5.9047050154        0.5648367121
 O          1.7897911252        4.0916149726        2.1561027594
 H          2.7172683843        4.0110778838        2.4580622952
 H          1.5142750827        3.1868013713        1.9025345952
 O         -3.1081894136        3.7163585542       -4.2892960085
 H         -2.9097526557        3.7105173039       -5.2337022789
 H         -2.7278840927        2.8515676202       -3.9733193485
 O         -4.2647717827        4.2074732918        3.1843742868
 H         -3.4865148296        4.2546194307        3.7744724763
 H         -4.1295012638        4.9736102761        2.5773842075
 O         -3.4872726322       -0.4315982847        2.5829260186
 H         -3.7661730096        0.4277366790        2.2092124936
 H         -4.2972064185       -0.8483994835        2.9333394325
 O         -4.5685511173        1.5780091539        4.5690171545
 H         -4.4574794134        2.5252594257        4.4580754850
 H         -5.2642763683        1.3472372067        3.9210361118
 O         -1.9368718156        4.0293146292        4.5588151606
 H         -1.6664182741        3.4018964083        3.8307674541
 H         -1.2382969295        4.7074106912        4.5169636190
 O         -3.8091455296        2.0670837128        1.6592575389
 H         -4.2938260204        2.1573936458        0.8284187199
 H         -4.0916881759        2.8097304465        2.2399261552
 O         -0.3605565532        3.7963486396        0.2980433305
 H          0.5345276135        3.4930168127        0.0626540174
 H         -0.9802156924        3.3138392343       -0.2807743750
 O         -2.3987972231        2.2452815054        6.4504727171
 H         -2.2072266270        2.9940529376        5.8340268719
 H         -3.3361189321        2.2761112129        6.6450053422
 O         -1.8571394358        0.3795658197        4.5891085771
 H         -2.2404418996        0.9946986101        5.2425560421
 H         -2.5559512116        0.1472252542        3.9431185926
 O          0.5292335946        1.5704367496        4.4250237755
 H         -0.4167154492        1.3441244699        4.4190674734
 H          0.9512474581        0.9645828502        5.0715610525
 O          4.0365200589        0.3095253982        6.5513974792
 H          3.0743304736        0.1343374822        6.4533755073
 H          4.2651616881        0.0444277872        7.4415080802
 O          1.0969952320        3.7572261872        5.8217932370
 H          0.8797354905        4.5773660549        5.3644717118
 H          0.8158826195        3.0342831160        5.2108606875
 O          2.4691346904        4.8917686140       -2.4229999241
 H          2.2110761800        5.6624225331       -2.9275984961
 H          2.3545635678        5.1247084297       -1.4631288316
 O         -3.3858767935       -0.4076495522       -1.3632611708
 H         -3.4891590159       -1.3779660120       -1.3003730784
 H         -3.9829471652       -0.0654916801       -0.6730316479
 O          4.0885194649       -1.8686385439       -6.2535581561
 H          4.3752573071       -1.0468706270       -5.7953665970
 H          4.7176737524       -2.0010785423       -6.9634942916
 O          1.0555034251        0.8147374278       -1.7320289112
 H          1.6661726923        0.4381448688       -2.3897212094
 H          0.4064938502        0.1147399202       -1.5425581515
 O          3.7019904445        2.6228683562       -3.6287256884
 H          3.2996421947        3.4336291470       -3.2919441723
 H          3.7923328860        2.0366425402       -2.8427974018
