  90
       -152.71507409
 O          0.2240549161        1.5189226975       -2.6522646958
 H          0.6195273056        1.0494862677       -3.4187076282
 H         -0.7341322929        1.3323834413       -2.6991892180
 O          1.3676268654        2.2157241066        3.7756493028
 H          0.7949632525        2.1167755950        2.9839387288
 H          2.2476879160        2.3397127963        3.4027795134
 O          4.0130386312        0.1380865642       -1.1534354220
 H          4.0156858499       -0.3009051598       -2.0179112304
 H          3.0709557509        0.1297984039       -0.8798859005
 O         -2.7027376544        3.6267857218        0.5738822356
 H         -1.7957479012        3.9286413076        0.3991518399
 H         -2.6337857829        2.8396057608        1.1338924772
 O         -0.9019718509       -1.7758492901       -3.3542391125
 H         -1.5318203779       -2.4315454437       -3.0131173852
 H         -1.3410386436       -0.9236616566       -3.2307898332
 O          2.4054635435       -1.6722263779        3.0724612789
 H          3.1579958002       -1.1889088323        2.6622875571
 H          2.0929464708       -1.1459526473        3.8263385407
 O         -3.9288305614        2.5902663662       -1.5080644209
 H         -3.4585844438        3.0431920909       -0.7606026087
 H         -4.4658692703        3.2550423645       -1.9375393983
 O         -0.0404194064        4.2884032055        0.2330087692
 H          0.3153937858        5.0741264185        0.6477581272
 H          0.4924811640        4.1449725330       -0.6025097636
 O         -4.4505809823       -1.1469009512       -2.0383583548
 H         -4.0228684298       -2.0107710915       -2.1109674076
 H         -3.8574089400       -0.5265791587       -2.4893209031
 O         -1.5441707765       -0.5662545191       -0.3878845728
 H         -1.7750324691        0.0183371489        0.3518305450
 H         -1.8690426473       -1.4483969361       -0.1394011521
 O          1.1696997708       -0.1009954267       -4.5662689407
 H          2.0376915752       -0.4388315372       -4.2940901324
 H          0.5415661142       -0.8239976702       -4.4498250076
 O          3.9199775616        2.7829349897       -1.0801029439
 H          4.0309716041        1.8050644278       -1.1969985708
 H          4.7617656888        3.1850167595       -1.2917191335
 O          1.3863350489       -2.1336927329       -1.9256254644
 H          1.3818190571       -1.2931993113       -1.3993547184
 H          0.5628808734       -2.0848322209       -2.4533672386
 O          0.3778136202       -3.5601543789        0.1165401577
 H          0.8744069862       -3.9341344046        0.8739457388
 H          0.9757003554       -3.2706229049       -0.5940159264
 O         -2.8130330310       -3.4241826260       -2.1353848879
 H         -2.9986799165       -4.3426880156       -2.3300101001
 H         -2.6674363664       -3.3640321830       -1.1708166565
 O          1.0345815460       -0.1163823592        4.9194716873
 H          1.1739357934        0.7836082881        4.5156984805
 H          1.1864250083       -0.0152668376        5.8586012086
 O         -1.5848665043       -3.3385763182        3.1994748350
 H         -1.5103066410       -2.3655340102        3.3598952859
 H         -2.0600586404       -3.7067400298        3.9433840294
 O          0.4101647293       -1.1376129048        1.4315945658
 H          0.2538033516       -1.9620424006        0.9338967606
 H          1.2007088609       -1.3129367419        1.9930441210
 O         -2.4930210959        1.0155686863        1.6593786107
 H         -2.3763198354        0.4608254519        2.4464087040
 H         -3.3533295574        0.7639499433        1.2355174693
 O          1.1397362142       -4.1189836053        2.5910883066
 H          0.2381055064       -3.9316814960        2.8941920575
 H          1.6861673460       -3.3685837954        2.8722033571
 O          3.4010395360       -1.3621371008       -3.4239606122
 H          3.8964470878       -2.0837916146       -3.8099108765
 H          2.6891915669       -1.7684574731       -2.8616295895
 O          1.4266662616        3.8061419101       -1.8571865278
 H          2.3111194583        3.4922420301       -1.6100355352
 H          0.9775719624        3.0370523359       -2.2576678842
 O          0.1371435361        1.8771239371        1.4083592942
 H         -0.7609129740        1.5288203542        1.4899973381
 H          0.0589190148        2.7563587972        0.9899731482
 O         -4.5985241600        0.4415056950        0.1846033972
 H         -4.6102703186       -0.2899676538       -0.4623974104
 H         -4.5921594888        1.2386683574       -0.3668135206
 O          2.9227967474        2.1448994298        1.4193490032
 H          2.0323756597        1.8405130933        1.1878793830
 H          3.2949417100        2.5109102848        0.6011897545
 O         -2.3330620609        0.6305330798       -2.5634668570
 H         -2.8944430623        1.3813691384       -2.3038037619
 H         -2.0735531577        0.1937385835       -1.7096614826
 O          4.2030289034       -0.2071569529        1.7475047723
 H          3.7925778388        0.6828388711        1.7322964830
 H          4.3855512485       -0.4030128171        0.8216796029
 O          1.3989255621        0.1867073263       -0.6596805678
 H          0.8736360815        0.7406950813       -1.2759453618
 H          0.8496015948       -0.0202514997        0.1223547603
 O         -2.1852478663       -3.1121535744        0.4687587782
 H         -2.2723197809       -3.2244107798        1.4269913610
 H         -1.2616907250       -3.3889675578        0.2899503742
 O         -1.2392154655       -0.7118633583        3.4190935156
 H         -0.6715515839       -0.7871312174        2.6077444911
 H         -0.6003157845       -0.4850064464        4.1132582472
