  609
      -1033.94869331
 O         -3.9263729236        0.0269406342       -3.9798949520
 H         -3.4371155684        0.8685874116       -3.9920779951
 H         -3.2476112452       -0.6232416714       -4.2749668949
 O          2.4262731078        6.9183252253       -0.8020709454
 H          2.7250318431        7.6291915635       -1.3686616301
 H          1.4454834134        7.0289813334       -0.7129613079
 O          3.1525487964        0.7151939611        0.6210121029
 H          2.6211187324        1.3728234699        0.1474748078
 H          3.8979621222        0.4720514162        0.0453271579
 O         -0.2377281443        3.9668210639       -5.1689092985
 H         -0.0893265420        3.6427814293       -6.0889727663
 H         -1.1585787321        4.2289643990       -5.1084463280
 O          2.0326982371        0.4504379467       -2.7502822601
 H          2.6890572650        1.1573496432       -2.5971217546
 H          2.5831062192       -0.3135625633       -2.9943762322
 O          0.4768023074        1.1850343861       -4.8083593362
 H         -0.3914973095        1.4749362450       -4.4936512881
 H          0.9159398520        0.6846891292       -4.0925534059
 O          3.5734206874       -1.9918490965       -0.3562154150
 H          3.7797508948       -1.6324466601       -1.2398716945
 H          2.7789236148       -1.5464109530       -0.0387728077
 O          4.7710121385        1.9019364393        2.3622958690
 H          5.6428262992        1.5707833589        2.1058577227
 H          4.1332402919        1.4594508118        1.7668154868
 O          3.2286174413        4.0470763482        1.3726381244
 H          3.5851037347        4.9385171957        1.5297893707
 H          3.8522414196        3.6346679987        0.7513291910
 O          1.9892032766        2.6685261575       -0.8662632355
 H          2.8367922267        2.7984607708       -1.3189576870
 H          1.3959081125        3.3478946100       -1.2207883616
 O          0.8240946547        4.9072320907        0.7806307110
 H          1.6582031484        4.4000218922        0.9052724447
 H          0.7385671730        5.0516677530       -0.1767806840
 O          1.1358712171       -6.1897658973        0.1150582053
 H          1.8865472685       -5.5675917504       -0.0106844895
 H          1.3718044638       -6.7441729514        0.8696031309
 O         -0.7540905547       -4.2943534086       -6.5583077601
 H         -0.4908931079       -4.4954775237       -5.6321326072
 H         -0.3126342296       -4.9380873326       -7.1110829190
 O          0.7270384648       -1.7055246940       -4.2433653781
 H         -0.2184230965       -1.6170207947       -4.4580965142
 H          0.7960268470       -2.2783253915       -3.4545631979
 O          3.4404360037       -5.7995121501        4.0472352584
 H          3.4656722731       -4.9768745509        3.4901811367
 H          3.7809664115       -5.4998763980        4.9194258775
 O         -1.9343220290       -1.5183126234       -4.6640596922
 H         -1.9975774247       -1.6744543340       -5.6325259709
 H         -2.0936005165       -2.3599246661       -4.1860398604
 O          2.8829616349       -1.7547814418       -5.6961014302
 H          2.0392538613       -1.7800874729       -5.1814268500
 H          3.2518100036       -0.8831321981       -5.4540979910
 O        -10.7269691340        0.5140641752       -4.4976806276
 H        -10.0318773229        0.9084071227       -5.0413798531
 H        -10.9134081156        1.1230372700       -3.7665686922
 O         -4.7950190269       -2.6396700677       -2.9824923112
 H         -4.7337285632       -2.4109626151       -3.9251322990
 H         -5.6050153862       -2.2423004386       -2.6189039616
 O         -4.0452198718       -0.3957976696       -1.3796279804
 H         -3.9195474624       -1.3104450104       -1.0920718974
 H         -4.0982319888       -0.3835241784       -2.3662726012
 O         -4.6255639858       -4.3698893149       -0.9063339745
 H         -5.4003860889       -4.2884146660       -0.3266880204
 H         -4.8030887720       -3.8417561053       -1.6983136274
 O         -4.0827210125       -4.2437160593        1.8448667914
 H         -3.2368734549       -3.9255733144        2.2008511487
 H         -4.5470223146       -4.5465353510        2.6462084723
 O          3.0777560343       -2.3639579020        5.0719971445
 H          3.4096930461       -2.7315944391        4.2280994657
 H          3.7024998074       -1.6624160228        5.3487124024
 O          6.1681512939       -3.0957333822        4.4195125081
 H          5.7916146081       -2.4233772351        3.7997641698
 H          7.0921739488       -2.8271641271        4.5679166534
 O         -0.9361944325        1.0665993471        7.6629181588
 H         -1.5196830573        0.2931361500        7.5779373776
 H         -0.0606476901        0.6869286931        7.8763094960
 O         -4.3908059419       -0.0677683300       -7.0793757684
 H         -4.2374786112       -0.4013260225       -7.9633707251
 H         -3.5711057586        0.4387427740       -6.8480488795
 O         -6.6682836488       -0.4447045485       -4.1042961423
 H         -5.7325219547       -0.5153625970       -4.3490777182
 H         -7.0623740699       -1.3305909923       -4.1686953747
 O          5.2573328133       -3.0616119497       -5.1296084381
 H          5.0541789511       -3.9720443162       -4.8662338622
 H          4.4192366169       -2.6489378064       -5.3966778804
 O          6.1866102849        0.5080571655       -3.8446653548
 H          6.5562693155        1.0968341365       -3.1569329407
 H          6.7984117706       -0.2434312009       -3.9745379490
 O          4.0784968380       -1.2350232368       -2.8741430671
 H          4.9280243875       -0.8922677425       -3.1673782082
 H          3.9689269656       -2.1639544910       -3.1686915254
 O         -2.0660954199        2.0136306441       -3.9851219246
 H         -2.3603459408        2.9429696126       -3.9649982120
 H         -1.6045412519        1.8500794685       -3.1012532906
 O         -0.0073293452       -1.3003295083        2.4455089512
 H          0.1872204329       -0.3481234977        2.4388375436
 H         -0.9731100083       -1.3685155403        2.2824329670
 O         -2.6104224437       -1.2722638920        1.9258706533
 H         -2.7242167608       -0.3487127739        1.6403869227
 H         -2.7207339072       -1.8123764626        1.1156710294
 O         -4.5398601095        3.3404040551        0.6046486570
 H         -5.0613221520        3.0836917344       -0.1759448568
 H         -4.7200334693        4.2887266083        0.7153986421
 O         -5.1205415202       -1.9745237255        0.7288834810
 H         -5.4062251544       -1.4259313106        1.4681575179
 H         -4.8250185202       -2.8198399764        1.1201025680
 O          7.2214226145        0.8417519985        1.7400676792
 H          7.4038378473       -0.1001593330        1.5003683570
 H          7.3589531365        0.8686242625        2.7011699193
 O         -7.5615536189       -7.0384849385        1.0649328659
 H         -7.6569647427       -6.6538661725        1.9438503764
 H         -6.6092073682       -6.9743738393        0.8513962846
 O         -6.8101927058       -4.0727734668        0.7932984064
 H         -6.8567744356       -4.4920994563        1.6645852730
 H         -7.5715810732       -4.4377217067        0.3001972807
 O          5.2689305435       -1.0899590903        2.9606837640
 H          4.3490464963       -0.7996388746        3.0888460029
 H          5.8304959307       -0.4609664247        3.4304673239
 O         -4.6208014643       -2.2973909636        6.3451114097
 H         -5.2213928702       -1.5433022031        6.4983952842
 H         -4.4726248523       -2.2376767933        5.3611770438
 O         -1.7244898939       -1.0203444828        4.6587599706
 H         -2.0250223098       -1.0529956356        5.5895354645
 H         -0.7616961161       -0.8502996396        4.7062438082
 O          2.4278025090        2.9587417915       -4.6125469240
 H          2.5970873522        3.3559644372       -3.7522666441
 H          1.5306361241        2.5653478462       -4.6315527963
 O         -3.8902454375        2.3839198652       -1.9506529850
 H         -3.3995551382        1.5930865834       -1.7254941666
 H         -3.2918919170        3.1459327691       -1.8217210562
 O          2.2424817080        2.5520325005        3.4045246119
 H          1.3688205128        2.2870624080        3.0444563598
 H          2.7253256567        2.9544267090        2.6568309003
 O          4.1251404546        2.0721920205       -2.3966213322
 H          4.7774670694        1.5379671899       -1.9187759010
 H          4.5835968663        2.5991914491       -3.0706086643
 O          0.1028015488        0.2951305761       -7.2748367662
 H          0.9123750557       -0.0804597424       -7.6990623809
 H          0.3415883369        0.4611988010       -6.3350845767
 O          0.5842012484       -2.9437093570        4.4735773072
 H          0.3368567467       -2.4011255808        3.6981552645
 H          1.4864001309       -2.6558831927        4.7120132854
 O          0.0259751587        1.4265547249        2.4125387111
 H         -0.7504784672        1.4866026314        3.0047827884
 H         -0.2479312121        1.9495376825        1.6394926403
 O         -0.7214197489       -4.4420901538       -0.6597647586
 H         -1.3406839617       -5.0941874135       -1.0701110916
 H         -0.1683551775       -4.9674338505       -0.0573687269
 O         -2.2070582266        1.4305369010        3.8864683251
 H         -2.1544769584        0.4677569924        4.1003126462
 H         -2.3043703677        1.8974117331        4.7364077559
 O         -6.4521963410        3.4486440407       -1.3625788790
 H         -6.4237847586        2.9461775573       -2.1976313184
 H         -7.3897547204        3.6045292505       -1.1723997101
 O          2.0158923928       -2.8100027866        7.5590466748
 H          1.9397959809       -1.8879634872        7.8472767764
 H          2.4033058079       -2.7477729710        6.6687822024
 O         -2.6505070110       -2.7174365847       -0.3733417612
 H         -3.4095984676       -3.3421111409       -0.3762613617
 H         -1.8637342942       -3.2965344056       -0.2947592062
 O         -3.6758725304        3.8921487851       -6.6399762918
 H         -3.0541308275        3.1856269164       -6.8755468060
 H         -4.5468187272        3.4517534456       -6.6194073558
 O         -2.9215989253        1.0593143473        0.6556696401
 H         -3.3003967961        0.5122312689       -0.0456665765
 H         -3.4156930651        1.8901156214        0.6492417414
 O         -4.7809040609        4.9460973571        4.4842986932
 H         -4.9911749390        4.1311629694        4.9722595741
 H         -5.5357104865        5.0883297872        3.8870340281
 O          3.7728118485        0.7118626013       -5.0981138249
 H          4.5521018572        0.6938599239       -4.5216448154
 H          3.2674557419        1.5178997388       -4.8547584881
 O          6.9617704113        2.3797842434       -2.0388840628
 H          7.5917283193        2.3529899809       -1.2895083578
 H          7.1886618682        3.1820497166       -2.5449933159
 O          8.6954495284        2.4426161015       -4.6902227293
 H          8.0721377956        2.2606755877       -5.4089573731
 H          8.4614377501        3.3293575842       -4.3816217135
 O          2.6885778011        2.3751141468        6.5328362439
 H          1.8273360576        2.3738217464        6.0693385128
 H          2.7487125691        3.2208036854        6.9777375107
 O         -4.8890838406       -6.6725000766        0.6536390240
 H         -4.5636623520       -5.7910751324        0.9130426137
 H         -4.4495111347       -7.2924458867        1.2444921376
 O         -2.9478276478        4.5854373143       -4.2171308505
 H         -3.2819371619        4.4461150697       -5.1391111469
 H         -3.7376589786        4.7605870043       -3.6740608079
 O          4.8587371898       -0.6092241133        5.9512553261
 H          5.7338585048       -0.9470954114        5.7442410548
 H          4.8365868876        0.3114125428        5.6279788531
 O         -2.8855022992        4.2695723076        2.6376713274
 H         -2.0425670770        4.1045322622        3.1136108341
 H         -3.5466319269        4.5322339495        3.3024612831
 O         -4.5809556740        2.0319112213        2.9435284990
 H         -4.5837988596        2.6183199205        2.1581287187
 H         -3.6355580932        1.8276080785        3.1355022141
 O          5.5726900625       -3.0264106117        0.9783640260
 H          4.8965833127       -2.5004564634        0.5027961229
 H          5.7335158327       -3.8121647047        0.4398365763
 O         -5.1222700299        5.3152857120       -2.6891858825
 H         -5.9158792703        5.6177977778       -3.1467664149
 H         -5.4691420202        4.6153011122       -2.0864219102
 O          4.5932892080       -4.6202639119        6.1335112642
 H          4.0340951142       -4.1027475353        6.7178209785
 H          5.1552592084       -3.9882006034        5.6494874832
 O          0.7787584096       -5.6169422950        4.4306519327
 H          0.6884754296       -4.6488848742        4.5543828916
 H          1.7388897390       -5.7847608917        4.3976931926
 O          2.7325323776       -0.1065174718        3.1686566195
 H          2.5814893814       -0.1595478540        2.2141737470
 H          2.7790406156        0.8525344144        3.3535345004
 O          2.4139635411        4.9227245660        4.5918158793
 H          2.0693720356        5.5341889195        3.9076433715
 H          2.2913754809        4.0135399766        4.2264083019
 O         -8.1164038877        1.1483828016        3.4310633468
 H         -8.9108281722        0.6291184197        3.6735948540
 H         -8.0780935828        1.9015653611        4.0505603367
 O         -0.8880151726        6.7273257928        3.6854726143
 H         -1.3520380875        6.7382374041        2.8309101139
 H          0.0182028492        6.9952349845        3.4764219224
 O         -2.2424605564        5.3304587336        5.6216211757
 H         -1.7704850197        5.8742621081        4.9686444842
 H         -3.1763030592        5.4580020021        5.4119460939
 O          1.4626087230       -3.1611706358        1.2177221792
 H          1.0047741735       -2.3637877490        1.5326434583
 H          0.8600919143       -3.8959917662        1.4350085077
 O          8.4557598889        5.5018360797        0.8765950972
 H          7.8670553525        4.8048230561        1.2426787761
 H          9.2059926274        5.5280787568        1.4809061217
 O         -1.1715099531        3.1996100675        0.7414404617
 H         -0.4579505365        3.8552899819        0.9218806100
 H         -1.8666376626        3.3507006559        1.3938837767
 O          9.4482666971        4.8652203015       -1.6079663343
 H          9.7083875421        3.9303733345       -1.6225260491
 H          9.0961714528        5.0465324804       -0.7153729026
 O          8.8407827858        0.1032814346       -0.8291577995
 H          9.4016104445       -0.4522686256       -1.4102676755
 H          8.2535400505       -0.5133587977       -0.3590423512
 O        -10.9279324233        2.1221115803       -2.1463002995
 H        -11.4717348925        1.4682585641       -1.6684368530
 H        -10.3683735498        2.5344550606       -1.4641203506
 O        -11.0985133654       -2.1592061724       -1.5972837432
 H        -11.6249891496       -2.7734434382       -2.1070351365
 H        -10.3419969926       -1.8750588533       -2.1946908720
 O          5.6125198768       -4.1520854629       -1.7097197200
 H          4.7527607848       -4.1242731153       -2.1723117933
 H          6.2330124621       -4.6167206288       -2.2860546818
 O          7.5347388270        4.6682120486       -3.3777885201
 H          6.8830228225        5.3924060835       -3.2482636149
 H          8.2846405928        4.8731872101       -2.7611276629
 O          6.4787303425        1.8301369511       -6.2130000471
 H          6.3497696056        1.1663156348       -5.5090562774
 H          5.8675436695        1.5948261734       -6.9357435034
 O         -5.3847651106        5.9345516967        0.6430744755
 H         -4.7595002555        6.5164386587        0.2034255293
 H         -6.2117625964        6.0118505686        0.1131051274
 O         -8.2180522421        1.2825695858       -5.5044429376
 H         -7.5289212492        1.7194543944       -6.0383147784
 H         -7.7428573198        0.5598426080       -5.0417900402
 O          2.3035321717       -7.5340011221        2.2072879741
 H          1.7294346066       -8.1034674816        2.7198241668
 H          2.7757892162       -6.9691106048        2.8421709380
 O         -5.8510465713        2.1420895755       -3.6380114675
 H         -6.1585822063        1.2290199065       -3.5681210905
 H         -5.0066729352        2.1919337076       -3.1402078252
 O         -7.6602165991        6.2735613790       -0.6579707702
 H         -7.8004516626        5.9193186450       -1.5519665707
 H         -8.4146874608        6.0365403865       -0.1083000844
 O         -4.5133890521       -2.0354449349        3.7586888551
 H         -5.1950873629       -1.3918884995        3.5183155007
 H         -3.7363615364       -1.8134728674        3.2135455144
 O          4.0448659136        6.6648320802        1.3389293098
 H          3.4190188346        6.8144540448        0.6022278802
 H          4.9038608264        6.5816397537        0.8687146569
 O         -1.7335186390       -7.0841165189        1.0039788919
 H         -1.1852408741       -6.3540793202        1.3440583385
 H         -2.3713507757       -7.2814171599        1.7067228547
 O         -6.2815226746       -0.2211333913        6.0031761547
 H         -6.0819589956        0.7028099558        5.7999407017
 H         -6.8751762166       -0.5608570876        5.3166583779
 O         -2.7913281940       -4.4355360494        6.0579682804
 H         -3.4645224821       -3.8116260975        6.3620477431
 H         -1.9524888948       -4.1331607401        6.4605582670
 O          0.6556839047        4.9370127723        6.6105563382
 H         -0.0813179879        5.5301681995        6.4501073740
 H          1.3385264262        5.0993393829        5.9208605372
 O          8.3806775109        2.7035438133        0.1800741810
 H          8.0112347898        2.0512547322        0.8004823803
 H          9.3141075803        2.8042380084        0.4151588792
 O         -5.3576745491        2.4121433705        5.4253717145
 H         -4.5108414092        2.3801857078        5.9017964770
 H         -5.1312130391        2.2244171412        4.4824567261
 O         -8.0827737096        0.6747803331       -1.6414224504
 H         -8.2295231917        1.4632438335       -2.1963508068
 H         -7.2614557285        0.8480602385       -1.1275395244
 O          3.2167432975       -4.7003161553       -0.3916602359
 H          4.0492834599       -4.9909077301        0.0235939255
 H          3.1830402425       -3.7269951338       -0.3390935898
 O          3.3469093022       -3.7380732178       -3.0830815795
 H          3.0689997442       -4.1407395494       -3.9239516950
 H          2.5226318199       -3.5724181990       -2.5738179287
 O         -7.3826827483       -4.4134822817       -2.4097699707
 H         -7.4525175310       -4.1314562043       -3.3316714415
 H         -7.2394860637       -3.5807472447       -1.9221825309
 O          5.5328260607        0.3493183914       -0.6723794560
 H          6.1137093763        0.6446118440        0.0352521211
 H          5.9448866718       -0.4501692035       -1.0430655461
 O          0.7885882702       -0.1065777559        4.9716777410
 H          1.5082239122       -0.3069077494        4.3358416364
 H          0.6202136809        0.8400281200        4.8969895713
 O         12.1925722115       -0.6776103183       -0.5043730827
 H         11.6356279773       -0.9034349409       -1.2715824455
 H         12.5332111795        0.2070025520       -0.7012292366
 O          1.0861841204       -3.0501222101       -1.9611459602
 H          1.2080373653       -2.3098596806       -1.3380301248
 H          0.4320072088       -3.6439213056       -1.5356407663
 O          5.4842717431       -5.7523591132        0.6598706329
 H          5.6567823929       -5.7060252374        1.6201171905
 H          5.1314778631       -6.6470152800        0.4529646434
 O          8.9550579976       -3.5989595457       -1.7562123509
 H          8.6552363809       -4.0546075054       -2.5525801813
 H          8.6698585946       -4.2164827700       -1.0392975165
 O         -4.8627825716       -5.2461902109        4.2167876146
 H         -5.6099638559       -4.7518967559        4.6009374797
 H         -4.1270943045       -5.1205540042        4.8262871028
 O         -9.1951522713        0.4978681037        0.7889053882
 H         -8.6139339717       -0.2222603051        1.0996128070
 H         -9.0035690560        0.5968357900       -0.1650533009
 O         -9.0797660977        3.3774098768       -0.5376480098
 H         -8.5647525275        2.9372928767        0.1726526063
 H         -9.4291082512        4.1661196305       -0.1028534476
 O         -7.8851813933        3.3968361599        4.9029252453
 H         -7.0672186972        3.1370373853        5.3519552160
 H         -7.6413376712        4.0732697583        4.2575872649
 O        -10.2803779561       -0.2204920650        4.2366989599
 H        -10.8332056607       -0.4110460192        3.4536399764
 H        -10.6134988769        0.6135040731        4.6181538037
 O         -6.7937200739       -1.9858317545       -1.3290891085
 H         -6.2075501952       -1.9789621502       -0.5370556431
 H         -7.2767873718       -1.1574516416       -1.3578641963
 O          3.8903530050        5.7053410588       -5.3692900786
 H          4.2589366588        4.8517108399       -5.0533401696
 H          4.4354704645        6.3722608053       -4.9451446148
 O          9.9752388563        2.1753753085       -2.1999375886
 H          9.6371702651        2.1455004328       -3.1047643834
 H          9.4514229033        1.5425983158       -1.6774978481
 O         11.2276366106       -3.3166650739        0.1343819645
 H         11.7438001760       -2.5191752472       -0.0272806625
 H         10.6296823680       -3.4309872066       -0.6151495971
 O          7.7432574232       -1.5889710587        0.9360123296
 H          6.8948888595       -2.0861390825        1.0238606840
 H          8.4057564535       -2.1219600766        1.4197230822
 O          0.0604482979       -4.8061430236       -4.0612998393
 H         -0.6170536718       -4.2747486055       -3.5976877394
 H          0.1725152679       -5.6000258235       -3.4973813278
 O         -2.0561339729       -3.5260824506        3.5406065171
 H         -1.9185012946       -2.5979003414        3.8009026429
 H         -2.3014538518       -3.9876255122        4.3563493413
 O         -4.1266860617       -5.2296726234       -3.8157016646
 H         -4.7023779428       -4.4626292847       -3.6882755436
 H         -4.5321352414       -5.9420634068       -3.2765958523
 O         -6.8534288724        4.8965438351        2.6811040759
 H         -6.3423188583        5.4479125334        2.0671365893
 H         -6.9425247874        4.0339326763        2.2050248734
 O         -2.1855631265        4.3187605332       -1.3943228118
 H         -1.8886393367        3.9164594735       -0.5427877439
 H         -2.6053165342        5.1701802186       -1.1958286717
 O         -0.3472534355       -4.9829655018        2.1059394568
 H          0.1244615213       -5.4046766490        2.8490968632
 H         -0.9963081779       -4.3974270440        2.5421609183
 O         -3.5299766329       -7.4034047432        3.0608182755
 H         -2.8196617206       -7.3997057328        3.7276265316
 H         -4.1728051107       -6.7623267828        3.3955972281
 O          0.2461190304       -6.8455348813       -2.3260912663
 H          0.5413657519       -6.6541064237       -1.4081207920
 H         -0.6961456745       -7.0269149411       -2.2425913490
 O         10.4545454599        4.6905299639        2.6933596792
 H         11.2601055000        5.0058449269        3.1009258234
 H         10.7175069877        3.9981666711        2.0469555627
 O         -3.5231228829       -4.5000808310       -6.3761185037
 H         -3.6814951989       -4.9786576554       -5.5438955644
 H         -2.5610122539       -4.4255062171       -6.4755170460
 O          7.4166978106       -1.7894820366       -4.2711230308
 H          7.2778663840       -1.9269729071       -3.3024608572
 H          6.6495867374       -2.2136058928       -4.7042358692
 O          7.3520114100       -4.8403005647       -3.8033920238
 H          6.6572795320       -5.4359903410       -4.1168028006
 H          7.3855839529       -4.1183054759       -4.4386321752
 O         -7.9165013012       -1.6454436423        4.1859848634
 H         -8.8021610217       -1.3354730245        4.4181275391
 H         -7.9095093042       -1.7258960656        3.2053979451
 O          4.2352876056        1.2739730825       -7.6505500050
 H          3.8281960275        2.1514885169       -7.7336547286
 H          4.0159290013        0.9934293700       -6.7333360297
 O         -3.4541870107        6.7693032368       -1.2371444128
 H         -4.1323491268        6.3317039082       -1.8037374888
 H         -2.8389417908        7.1881482127       -1.8480775224
 O          8.6305770695        2.9380486390        3.8047726425
 H          9.2576940335        3.6336417512        3.5507709607
 H          8.0576523641        3.3048417211        4.5158483713
 O         -4.7974356415       -2.3231585182       -5.6482740872
 H         -4.2868038130       -3.0754671312       -6.0336942437
 H         -4.6026500979       -1.5260338959       -6.1764048427
 O         -9.2703110164       -1.2886969942       -3.1929225441
 H         -9.8452357712       -0.7496044699       -3.7782285363
 H         -8.7583539313       -0.6382126970       -2.6859185801
 O         -1.7504379307       -1.7360873965       -7.2837218552
 H         -1.3142613634       -2.5969558005       -7.2897498118
 H         -1.0534538481       -1.0618418448       -7.3977162610
 O         -2.3177805590       -1.2290206412        7.2364673413
 H         -3.2017353580       -1.6285622841        7.1154815362
 H         -1.6652450402       -1.9615120734        7.2912598658
 O         -7.8773288116       -5.0676695017        3.1308741493
 H         -7.5529539513       -4.8020939938        4.0021515326
 H         -8.7893112888       -4.7784767717        3.0723935783
 O         -1.6414578864       -6.8392865926        4.9528888987
 H         -0.7433759460       -6.5098532628        4.7910171420
 H         -2.0604921017       -6.1890182822        5.5249290342
 O          3.2129978920       -6.5789895376       -2.3326674384
 H          3.1916059448       -5.7849206947       -1.7565079728
 H          2.2954768705       -6.7878817360       -2.5366878170
 O         -2.4806950960       -6.2344073787       -1.3914688865
 H         -3.3398054270       -5.8027185361       -1.2841146736
 H         -2.3115660197       -6.7005623723       -0.5422205163
 O         10.3821352352       -1.3553168612       -2.4129138686
 H         10.2392914979       -0.9875758906       -3.3135410049
 H          9.9437369768       -2.2192327834       -2.3717679488
 O          7.1015741864        0.4064473133        4.4190153352
 H          8.0703071281        0.3031546548        4.4677987112
 H          6.8494031537        1.1745212609        4.9365775282
 O        -11.3566846347       -0.7138321469        1.7973606967
 H        -11.2328085974       -1.6550797112        1.6271975488
 H        -10.5797130842       -0.2716319004        1.3871789799
 O         -6.0014541282        0.8039705181       -0.0538569583
 H         -5.2859524245        0.3935032038       -0.5820652480
 H         -6.0329151543        0.3089189420        0.7835835258
 O          6.8012723122       -1.8779629471       -1.7120280567
 H          6.2029202681       -2.6724375352       -1.6653104639
 H          7.6348631379       -2.2215700359       -1.3565646294
 O         10.4255019623        0.1894027420        1.3547572584
 H          9.7246335087        0.2071150653        0.6667333600
 H         11.1685180911       -0.2649883046        0.9170666406
 O         -9.3919233098        5.1995453689        1.4712243217
 H         -9.8794018543        4.4410668931        1.8257488167
 H         -8.5773477930        5.2491927994        1.9978059074
 O          4.7840621548       -5.7925093074       -4.4532504405
 H          4.1068433627       -5.8216522128       -5.1360401691
 H          4.3364954275       -6.1227008188       -3.6469481226
 O         12.4493343197        2.0019165768       -1.2802693705
 H         11.5645791622        2.0341743608       -1.7161958949
 H         13.0547435316        2.4631032998       -1.8591666981
 O        -10.2478908295       -3.1400507495        0.7561688000
 H        -10.5670043121       -2.7549359341       -0.0864113601
 H         -9.8826100943       -4.0007447624        0.4861763409
 O         -1.3369629937        6.6072460743       -3.1930634196
 H         -0.5594833902        6.6715960725       -3.7564192820
 H         -1.8750193100        5.8740557905       -3.5491160839
 O          5.4532740001        6.2743650076       -2.9112332407
 H          4.6956856571        5.6572785741       -2.8133773564
 H          5.7115834837        6.4722252250       -1.9937607690
 O          9.6688950982       -0.2810154212       -4.7270112779
 H          8.8641272369       -0.8168087557       -4.8028152826
 H          9.4041031013        0.6452536980       -4.7799197656
 O          5.2411279681        3.5013481297       -4.5050964965
 H          5.6012013797        2.9551774152       -5.2332094581
 H          6.0073552673        3.9501640103       -4.1285835739
 O          2.3611975223       -0.7238302668       -8.1591290531
 H          3.0527098007       -0.0458368373       -8.2365402012
 H          2.5904508314       -1.2373107179       -7.3607296073
 O          2.9742501058        3.6643555939       -7.1431967816
 H          2.8040390791        3.4251470529       -6.2070619976
 H          3.3316841294        4.5547426005       -7.1040199991
 O          1.5881438461        6.6115154128        2.6750016597
 H          2.4240405470        6.9583051898        2.3481017014
 H          1.2263094989        6.0450487871        1.9524817912
 O          2.3707280250       -4.5971729635       -5.4572022458
 H          1.5112645963       -4.6588704782       -4.9990924417
 H          2.3952693727       -3.7337603235       -5.8827001320
 O         -8.9418526090       -5.2678269806       -0.3523373828
 H         -8.5773367373       -5.1816953506       -1.2484860531
 H         -8.5636243369       -6.0838496896        0.0464209451
 O         -2.3183001267        1.4763741174       -6.6193609306
 H         -2.1550220534        1.5963913598       -5.6657456266
 H         -1.5109029725        1.1021571805       -6.9953290546
 O         -0.1770430156        7.2399964863       -0.7024953361
 H         -0.6011843799        6.9780553256       -1.5348902209
 H         -0.6977688999        6.8605035297        0.0220647224
 O         -6.8103412475       -3.7678806049        5.3884129150
 H         -6.1452406195       -3.3843685691        5.9810421146
 H         -7.2250655408       -2.9885555658        4.9612449047
 O          0.4065698501        4.6157057385       -1.9056709243
 H         -0.5618738209        4.4839008971       -1.9043947500
 H          0.6276213456        5.0999868088       -2.7083402706
 O         -2.0239990627        6.3127221282        1.1885404597
 H         -2.6838903818        6.6532220614        0.5778874127
 H         -2.4217448675        5.5261670435        1.6325635029
 O         -8.0682550051       -1.8311623773        1.5218063761
 H         -8.9148006238       -2.2796861725        1.2996975526
 H         -7.3891817331       -2.4682177786        1.2134387677
 O         11.0385977391        2.7295181407        0.9850523073
 H         10.8690337470        1.8013118601        1.2752510306
 H         11.6667563456        2.6515743149        0.2516899153
 O          6.0993449142       -5.4812346495        3.2726923614
 H          5.3420764235       -5.9055751741        3.6982394501
 H          6.1307868444       -4.5635875747        3.6458602836
 O         -7.3677550846        2.6606269423        1.3784622923
 H         -7.7020345073        2.0266204872        2.0433301521
 H         -6.7010265875        2.2011229518        0.8428273705
 O         -0.4063093114        3.9823738633        3.4628737936
 H         -0.2361645363        3.4487294353        4.2528646666
 H         -0.3022463981        4.9170393586        3.6811703909
 O         -5.9680183921       -0.1025036737        2.5200636858
 H         -6.8187716923        0.1681710308        2.9104470815
 H         -5.3611035475        0.6609328423        2.6790281664
 O          4.8516995060        1.9463176963        4.9965703490
 H          4.0102328991        2.1764243542        5.4297555789
 H          4.7105511118        1.9726359028        4.0190251717
 O          6.7147634003        3.8780140627        2.1270364251
 H          7.3311437756        3.3673289346        2.6811719900
 H          6.0595975988        4.2828589274        2.7189299974
 O        -12.2079881057        0.2032069127       -0.7128040841
 H        -12.1993098219        0.0120134940        0.2354087514
 H        -11.8957694017       -0.6173402247       -1.1315598242
 O         -2.1096401412       -3.6038645753       -3.0666564541
 H         -2.7761946879       -4.2949355214       -3.2566305454
 H         -2.3338768562       -3.2200390630       -2.2054125901
 O         -2.7625601541        2.7034616908        6.2155672737
 H         -2.2786021059        2.3315272993        6.9621019458
 H         -2.4840690964        3.6323173059        6.1084355860
 O          8.6699012571       -5.7798219624        2.6271143436
 H          7.7285533191       -5.7342488116        2.8981370257
 H          9.1435935372       -6.2148336689        3.3349249845
 O        -10.5195401228        2.6247673382        1.9492094017
 H         -9.9525361563        1.9050818486        1.6089928130
 H        -11.3875701651        2.4721696326        1.5737626654
 O          9.7449055178        0.4392954500        4.0206830895
 H         10.0075583759        0.1979903958        3.1157212846
 H          9.5694025989        1.3956486639        3.9843253236
 O          0.1166951987        2.5313477204        5.7143957356
 H          0.2191786637        3.4072636743        6.1551236190
 H         -0.3342323412        1.9653521949        6.3783943725
 O         -5.6594383364       -6.6662524951       -2.1541062581
 H         -5.3666520589       -6.7567572513       -1.2365499552
 H         -6.3244605281       -5.9606923022       -2.1607872271
 O          3.1832442639        4.8682315752       -2.4724337361
 H          2.9770059207        5.3561187988       -1.6609189434
 H          2.6012953417        5.2604368237       -3.1459831100
 O          4.1192837561       -7.9106535720       -0.0077184789
 H          3.7669037981       -7.6086990175       -0.8621659409
 H          3.3938070088       -7.8966659608        0.6303189154
 O          8.7625242305       -2.2505199065        4.5950939523
 H          9.0925438986       -2.6030232626        3.7507888927
 H          9.1991054671       -1.3989883667        4.6929335177
 O          0.3234431905        3.0683653346       -7.5926565200
 H          0.2720928930        2.0988111839       -7.6280808844
 H          1.2661074021        3.2947548482       -7.6414946935
 O          1.3564024527        5.8559924622       -4.3044116656
 H          0.8201938846        5.1339006604       -4.7181678504
 H          2.1466366089        5.9390587508       -4.8664316801
 O          9.4783134491       -3.2046695436        2.1480950700
 H         10.2165157629       -3.2474149809        1.5050312521
 H          9.1795740429       -4.1229474227        2.2687420076
 O          4.9785912456        5.3356250243        3.7265567589
 H          4.1189726286        5.1181496022        4.1398928753
 H          4.7935852271        6.0286889293        3.0844810896
 O          1.5479779908       -0.0515993943        7.5389607436
 H          2.2514924414        0.6063999376        7.4962702042
 H          1.3129239191       -0.2216193328        6.5997543459
 O         -7.8477423854        5.3568913893       -3.2808178791
 H         -8.0423862414        4.3901087225       -3.3032822705
 H         -8.4418043659        5.7703622921       -3.9050775606
 O         -7.2238233574       -3.0663064448       -4.8589321974
 H         -7.8760811941       -3.1195463401       -5.5547867842
 H         -6.3502823028       -2.9058248344       -5.2804032309
 O         -5.8043991632        2.2223041719       -6.3074199041
 H         -5.7297371914        2.2544814632       -5.3267761504
 H         -5.3780282340        1.3945361186       -6.5854361178
 O         -8.5566991194        2.7803530740       -3.3541704891
 H         -9.4982958994        2.7200004803       -3.1439762255
 H         -8.4091458585        2.3051693599       -4.2061061406
 O         -0.5526848117       -3.1800405818        6.8460448951
 H          0.2915944632       -3.1990113182        7.3400495380
 H         -0.2507375111       -3.0306606218        5.9195926698
 O        -10.6249432777        2.4162226389        4.7136876142
 H         -9.8428945295        2.8583531587        5.0617510067
 H        -10.6322762548        2.6018845815        3.7587233785
 O          5.3773328077        3.5672253141       -0.1641712203
 H          5.8199230372        3.0617675605       -0.8695340375
 H          5.9067119008        3.4467746073        0.6472639614
 O          6.0626875515        6.1322910380       -0.2859037968
 H          6.9712490337        6.1450536941        0.0454930122
 H          5.8010529358        5.1760886022       -0.3065071164
 O          8.0659728170       -5.3892577897       -0.0776477538
 H          7.1051608412       -5.5287977485        0.0236350798
 H          8.4593546973       -5.6303441041        0.7675121615
 O          6.6972768862        3.8543950448        5.3779980501
 H          6.2823588473        4.6172471329        4.9560879942
 H          6.0059937182        3.1583318801        5.3422940554
 O          3.5686829520       -3.5537729950        2.7209632851
 H          4.3724336647       -3.3341171450        2.2136295134
 H          2.7982861719       -3.3865029286        2.1207942886
 O         -0.6124071857        1.7455851966       -1.8404129073
 H          0.3104539597        1.4749219576       -1.8650126005
 H         -0.8954737851        1.7550189776       -0.9234016664
 O          1.1859989021       -0.7613163282       -0.4622647374
 H          1.5716379311       -0.2000755650       -1.1582064678
 H          0.2273185551       -0.7099890663       -0.6158762647
 O         -1.1309653495       -0.8934323059       -1.6795526047
 H         -0.8201065965       -1.3056557546       -2.4863475762
 H         -1.7237634667       -1.5040717852       -1.2271442866
