  117
       -193.22740107
 H          2.4070239923       -2.0399020519        0.2564627288
 C          1.6952988824       -1.5098583511       -0.3775144896
 H          1.5117848115       -2.0868951726       -1.2821386897
 C          2.2642888938       -0.1533370341       -0.7614496735
 H          1.5950073654        0.3533476037       -1.4552402701
 H          3.2353830532       -0.2945627838       -1.2237739248
 O          0.5099956506       -1.3709821658        0.3779440283
 H         -0.1857910636       -1.0012972795       -0.2293677524
 N          2.3955182198        0.6412439153        0.4694253154
 H          2.8049784812        0.0226331776        1.2021608754
 H          1.4248527158        0.9560553780        0.7564524989
 H          3.0173051933        1.4563724300        0.3446951835
 O          5.3515924297       -1.5949678519        0.0952827877
 H          4.7745592644       -1.5374039620        0.8891807859
 H          6.1942045623       -1.9450420733        0.3870392165
 O          2.0739578745       -2.6923701730        3.5983136996
 H          1.5502588620       -3.1740180977        2.9042529113
 H          2.1868552974       -3.2999206740        4.3289535271
 O          3.4443740238       -1.2052406206       -3.6516141604
 H          3.7726592195       -1.5230499394       -4.4944726703
 H          3.6666390557       -1.9168767548       -2.9960459262
 O          0.6537716359       -1.7451055915       -3.3887764645
 H          0.2332568411       -0.8698536756       -3.3975141715
 H          1.5863136537       -1.5866123324       -3.5876813724
 O         -4.4294315654       -0.5970246031        2.4495511735
 H         -3.4688234279       -0.6513396376        2.2665139240
 H         -4.5954454531        0.3266159675        2.6669206918
 O         -2.5836857649        3.5913638070       -1.0313402454
 H         -1.6780406699        3.3487894880       -1.3215113950
 H         -3.1735155931        3.3727459146       -1.7707760386
 O          0.6712875090       -3.7810846513        1.6378603304
 H          0.4360451564       -2.9331872737        1.2132932844
 H          1.2088459802       -4.2379577443        0.9696654308
 O         -3.0517606135        1.2844966215        0.2514962223
 H         -3.3286159689        1.4967518319        1.1656716778
 H         -2.8822742743        2.1458016949       -0.1837896117
 O         -2.7122500869        0.5437269006       -4.2677357349
 H         -2.9566441604       -0.2986314639       -3.8564913162
 H         -3.2334154646        1.2299665159       -3.8205531584
 O          5.0924135985        1.2070013690       -0.0500817053
 H          5.3325249890        0.2666909919       -0.0434585119
 H          5.0006265258        1.4359365360       -0.9836369724
 O         -0.1868766911        0.8748677406       -3.6997362775
 H          0.2238027278        1.2732381490       -4.4676291614
 H         -1.1430207241        0.7337079297       -3.9377357413
 O         -0.4987967139        3.2365929165        2.7718900922
 H         -1.2188286011        3.7902741702        2.4296719802
 H         -0.9082042298        2.5645989518        3.3510988327
 O         -2.6865985101        4.4467740246        1.5721147875
 H         -2.6580294347        4.2243140153        0.6213598663
 H         -2.8949628209        5.3800202493        1.6269324506
 O         -1.5765644851        1.0989531544        4.0656848991
 H         -1.4969671139        0.3795831269        3.4092028441
 H         -1.1158876551        0.7960117877        4.8486624364
 O         -0.2116389834        2.5116919362       -1.5744100900
 H          0.6926024333        2.8678754862       -1.6942614937
 H         -0.3029494769        1.8284216034       -2.2726752497
 O         -1.8656625706       -2.9094706497        0.4155700699
 H         -2.7592841538       -3.1038739481        0.0783028308
 H         -1.5909889831       -3.6476754430        0.9660828528
 O         -3.3965208146       -1.4660468497       -2.4789236984
 H         -3.6017689943       -2.3324946220       -2.1077788056
 H         -4.0531076586       -0.8517355621       -2.0858225329
 O         -5.9570918421       -1.5543301236        0.5641633629
 H         -5.3788817100       -1.2080214259        1.2997084739
 H         -6.7951855547       -1.7839435218        0.9664847069
 O         -0.2762918281       -3.7564514032       -1.7772348456
 H         -0.8241519700       -3.3092639282       -1.1124807921
 H         -0.0676601704       -3.0923563136       -2.4590605829
 O         -5.0019680797        0.2987212331       -1.2202937038
 H         -4.3048205463        0.6194027185       -0.5965378928
 H         -5.5755379964       -0.2752286710       -0.6906214735
 O          1.9749965751       -4.6039868098       -0.6982253087
 H          1.1345707657       -4.3229019271       -1.1541031098
 H          2.1101339733       -5.5199466518       -0.9444400112
 O         -4.3448684568       -3.3638764003       -0.6201571270
 H         -4.9701721191       -2.7303033372       -0.2053027741
 H         -4.8029610898       -4.1999410998       -0.7089462010
 O          2.0747704472        2.2483252651        3.0236631649
 H          1.6987545367        1.3448225616        3.0864445755
 H          1.3158693615        2.8324703259        3.1513183996
 O         -4.3093173056        2.3647092236       -2.8461413596
 H         -4.7090196745        1.6602648912       -2.3007270289
 H         -5.0145843965        2.7435919945       -3.3721995084
 O          2.3830518097        3.0874832537       -1.8331402233
 H          2.7191546002        3.3300558574       -0.9594079919
 H          3.0226272221        2.4680469323       -2.2162190144
 O          4.0284534325       -3.0714042840       -1.8830618332
 H          4.5282969745       -2.6335248467       -1.1759487783
 H          3.3418052654       -3.6143815580       -1.4579630651
 O         -3.7651767165        2.1343627158        2.7118593998
 H         -3.1095582850        1.8501454383        3.3669654072
 H         -3.5647415101        3.0575633589        2.4972913905
 O          3.2331162635        3.2790644788        0.8158852370
 H          2.7789750254        3.0633014230        1.6557963536
 H          4.0246341672        3.7713432194        1.0337677357
 O          4.3064780256        1.2669293516       -2.8161295005
 H          3.9752245720        0.4046845681       -3.1441196570
 H          4.8160238213        1.6548893100       -3.5289307052
 O          3.7419194531       -1.1032870011        2.1486685212
 H          3.2743746704       -1.6736888514        2.7822093471
 H          4.1856000089       -0.3727882254        2.6371455013
 O          0.9432184457       -0.2213517493        3.0348182296
 H          0.5734483931       -0.5137709952        2.1870734372
 H          1.3090057899       -1.0186492884        3.4413698535
 O         -1.7565172686       -0.6100613999        1.9323497273
 H         -1.7133953328       -1.4267982308        1.4035404107
 H         -1.3485366640        0.0845994611        1.3849939850
 O         -0.1269116837        1.4166776590        0.8405611065
 H         -0.2161014323        2.1459357078        1.4866435740
 H         -0.2492924932        1.8038529138       -0.0559624899
 O         -1.2970930903       -0.3060553936       -1.2160737003
 H         -1.8959199815       -0.8524872180       -1.7554761401
 H         -1.8750520084        0.2586528044       -0.6825766123
 O          4.7266334967        1.2360510112        2.8272468255
 H          3.9466688038        1.7530512039        3.0683687946
 H          4.9746078848        1.4829864659        1.9252586979
