  144
       -244.31762252
 O          6.5028323649        0.8275590642        2.7353652409
 H          6.1459844053        1.7395854415        2.5446558266
 H          7.3944229260        0.9476718670        3.0621652713
 O          5.9071827121       -3.0962831580        0.4386305195
 H          5.6052896971       -3.2470876690       -0.5009464150
 H          6.7771731498       -3.4902221024        0.5117550086
 O         -3.6422332098        0.0206734136       -2.6509793998
 H         -3.8207787547       -0.0310094970       -1.6934662738
 H         -4.1027025429       -0.7541711217       -3.0158297580
 O         -3.8940363772       -0.2024236896        0.0414505843
 H         -4.2924082374       -0.6183077884        0.8257148697
 H         -3.9663226429        0.7700356646        0.1798285752
 O         -1.0029276824        3.7222994272       -3.7998985904
 H         -1.0499489690        4.6134422850       -4.1469286873
 H         -0.3442593459        3.7357939868       -3.0627616576
 O         -1.2067166965       -1.4696795102        1.9866976730
 H         -1.7591864014       -0.7694774163        2.3839589324
 H         -0.6187115051       -1.7738604401        2.7200486872
 O         -3.4954996758        2.7879780401       -2.5914084902
 H         -3.5104467449        1.8324377098       -2.7568553877
 H         -2.6796502432        3.1219983034       -2.9829906530
 O         -3.1324797095        2.8778890119        2.7032155401
 H         -2.3701448105        3.4576576391        2.6167182052
 H         -3.5614933381        2.8445550672        1.8295955860
 O          4.4808546778       -0.5082187653       -3.2905141136
 H          3.9019781497       -0.2572326888       -4.0190714581
 H          3.9138729196       -1.0221389562       -2.6877185262
 O          4.5062086168        1.2788920961       -1.3235878613
 H          4.8342730581        0.7092741037       -0.6042421435
 H          4.7157239730        0.7797336135       -2.1419441082
 O          5.3432063018        3.1162765591        2.2714335402
 H          5.2354225068        3.4258453334        1.3587426055
 H          4.4390991393        2.8824201131        2.5600636758
 O         -4.6939204567       -1.3667203648        2.3828069178
 H         -4.1478212690       -0.7221456144        2.8741017399
 H         -4.1510732280       -2.1756507013        2.3160606016
 O          0.6577246242        3.4592837819       -1.7302495451
 H          1.2064825776        2.6770858283       -1.9589466181
 H         -0.1303108281        3.0549135412       -1.2906333070
 O         -6.1715325212        2.1492066089       -1.4711834206
 H         -5.6109764910        2.4865755009       -2.1781045104
 H         -6.2986194323        1.2013657954       -1.6384029952
 O         -1.7538313908       -1.6892129169       -0.7383822008
 H         -2.5515080963       -1.2535553106       -0.3852397108
 H         -1.9607258864       -1.9547471662       -1.6631180523
 O          2.7560630105       -1.6160534255        3.5553850344
 H          3.3573181041       -0.9946865557        4.0237188923
 H          3.2732352988       -2.3881861699        3.2900348573
 O         -0.8776180333        0.1482650186        5.2887056647
 H         -0.3582380453        0.8238273825        4.7982803052
 H         -0.8964189104        0.4299516659        6.2034765838
 O         -0.3993027136        1.4384971579       -5.0692536520
 H         -0.9809787778        1.3202076830       -5.8211091893
 H         -0.5894888157        2.3267495694       -4.6979367222
 O         -6.7535352838       -1.8548485339        0.7313047333
 H         -6.1350192310       -1.5609115092        1.4277625858
 H         -7.5587043110       -2.1252320476        1.1738064107
 O          2.8149300383       -1.9760692382       -1.6711818212
 H          2.5066735526       -2.2035433854       -0.7719325122
 H          2.0222584502       -2.0407105527       -2.2454896848
 O         -2.8993565314       -3.4084262339        1.9832667621
 H         -2.7355251484       -3.8645255446        2.8092483194
 H         -2.2101021545       -2.6710799120        1.9267500246
 O          2.8206244467       -0.0735954264        1.3740720662
 H          3.7220371446       -0.2430942645        1.0418649603
 H          2.6909159027       -0.6921958112        2.1229611606
 O         -2.7843323498        0.2864532302        3.3133900915
 H         -2.2761346664        0.2381558919        4.1398902714
 H         -2.9290457463        1.2407448577        3.1335162668
 O         -4.9837577021       -2.3442247429       -2.8788870139
 H         -5.7721671113       -1.8109061187       -2.6958164510
 H         -4.7930145777       -2.7895755767       -2.0322618982
 O         -0.3548535291        4.1870265600        2.3135709213
 H          0.4126857975        4.1687237074        1.7166933219
 H         -0.3464778064        5.0491909520        2.7327085982
 O          3.8516878714       -3.7197327364        2.1047888509
 H          4.6017799231       -3.4808239208        1.5227969623
 H          3.9610976118       -4.6421374115        2.3371896799
 O         -4.5383845569       -3.3038345615       -0.3682819907
 H         -5.3468907577       -2.9425988606        0.0182575602
 H         -3.9193003279       -3.4270938023        0.3616765466
 O          4.3385462076        0.3435717669        4.3961807977
 H          5.1630157941        0.4161283702        3.8849120682
 H          3.8345548359        1.1392432282        4.1989870929
 O         -2.2505757297       -2.5520135857       -3.2150070588
 H         -3.2052013760       -2.6430058727       -3.3360070168
 H         -1.8759221922       -3.4402796781       -3.1902674994
 O          5.0707392482       -3.3523058571       -2.0226436765
 H          4.1717360917       -2.9637846783       -1.9341612092
 H          5.5296199476       -2.7852868032       -2.6480286655
 O          1.8970665746        3.9385631571        0.6277879325
 H          1.4325468339        3.8788159130       -0.2345344706
 H          2.8250243282        4.0916087239        0.3865311001
 O         -6.8113903208       -0.5906006025       -1.7212626915
 H         -6.7400021466       -0.9722752652       -0.8260026176
 H         -7.7468161650       -0.5305981439       -1.9206133604
 O          2.8050347102        2.2253118491        2.6261843353
 H          2.8330056927        1.3581919597        2.1363731472
 H          2.4425481999        2.8617932671        1.9882853996
 O          1.9397279633        0.0141936663       -4.4459045634
 H          1.2494356165        0.5324267743       -4.8821119561
 H          1.5323123961       -0.8397996097       -4.2230702775
 O          1.7104921781       -2.6237906361        0.6764403669
 H          0.9136770193       -3.1785814905        0.6178047689
 H          2.3316721944       -3.0466702216        1.2867658471
 O          4.5151724554        3.7691935143       -0.3046807956
 H          4.9774245706        4.3591532659       -0.9004210355
 H          4.5189357390        2.8824317237       -0.7239930497
 O          0.1415400121       -2.1673265790        4.1234497847
 H          1.0915096091       -2.0013342980        3.9962834210
 H         -0.1826231873       -1.4527015894        4.6942759135
 O         -0.4252346915       -4.5177857866       -2.4847803470
 H          0.0159493292       -5.3523881646       -2.6408252889
 H         -0.4845984692       -4.3978385921       -1.5130188954
 O         -4.0795978392        2.4542689350        0.1471674132
 H         -4.9869395685        2.4825691181       -0.2235592259
 H         -3.5185342279        2.7108894117       -0.6049533190
 O          5.3774016419       -0.4144952765        0.6173676883
 H          5.6195156375       -1.3539578623        0.5566220787
 H          5.8782431252       -0.0334739090        1.3618265865
 O         -0.6564881349       -3.9082778694        0.1463186644
 H         -1.0800567201       -3.0432691943       -0.0887765036
 H         -1.2774277272       -4.3230475863        0.7510772079
 O          0.6275866605       -2.0297933942       -3.1668628995
 H         -0.0811082381       -1.3862492646       -2.9609598418
 H          0.2308348678       -2.9102498334       -3.0782886254
 O          1.8974608332        1.1063539188       -1.9971671981
 H          2.8148631290        1.1548533132       -1.6584058393
 H          1.9535773911        0.7321797674       -2.9029301476
 O         -0.9883031078        0.1153445873       -2.7421146546
 H         -1.9523995608       -0.0668432699       -2.8104428635
 H         -0.7465693731        0.5726733313       -3.5650656139
 O          0.4057407830        1.9926683530        3.8783420171
 H          1.3361161898        2.0256177833        3.5909965019
 H         -0.0270002551        2.7416245694        3.4442449187
 O         -1.2650075357        2.0344733118       -0.7144639803
 H         -0.7604570288        1.6277717147        0.0355571001
 H         -1.2196013114        1.3291179667       -1.3871376858
 O         -1.6821002348        4.8042131987       -0.0575021752
 H         -1.2947668857        4.6816518125        0.8164430656
 H         -1.7294485827        3.9055315313       -0.4071261505
 O          0.2167473562        0.7255407725        1.0013805451
 H          1.0873159235        0.4939139119        0.6557296404
 H         -0.2387926624       -0.1236574700        1.0990402712
