  114
       -193.42740745
 O         -0.5599921900       -4.0447183322        0.8600151535
 H         -1.1164530536       -3.9083044043        0.0631424778
 H          0.3533280322       -4.0969778461        0.5559487782
 O          2.0714271106       -3.9544263255       -0.3372822635
 H          1.6205829985       -3.9412845261       -1.2058591420
 H          3.0303010779       -4.0254977026       -0.5516319507
 O          2.2399748072       -1.3067909114       -0.1709364455
 H          2.1103586701       -2.2705461582       -0.0326283118
 H          1.4639775014       -0.8539274214        0.1935805063
 O         -4.6617683746       -0.1133000747        3.5302661822
 H         -4.5915115944       -1.0164114325        3.1689961153
 H         -4.9809810614        0.4489857381        2.8075235890
 O         -1.2561109209       -2.8524336454        3.1003281784
 H         -1.2771024091       -3.5063089772        3.8008157487
 H         -1.0147211495       -3.3458594827        2.2758699838
 O         -3.9914200040       -2.5076896664        2.4003936395
 H         -3.0502871473       -2.6160054279        2.6016414071
 H         -4.0963269737       -2.6281594180        1.4425676424
 O         -2.2960484444        2.5519410281        2.5071818171
 H         -2.2459049121        1.8593913876        3.1836083864
 H         -2.4916456941        2.0700643520        1.6572560025
 O          2.8665596908       -3.6803907353        2.4171706732
 H          3.7953062332       -3.4302841454        2.2769788579
 H          2.5771677305       -4.0874714904        1.5927002033
 O          5.2759903129        1.3208723225       -3.0488388405
 H          4.9404661457        1.3133723885       -3.9470419244
 H          4.5643525313        1.7076248824       -2.5030230344
 O          5.2598194019       -1.1972941657       -2.0368683922
 H          5.5311570218       -0.3343196586       -2.4029647942
 H          4.3728762774       -1.3392066237       -2.4206507419
 O          2.6502958722       -1.4612388445       -2.8057276457
 H          2.4330409934       -1.3197715279       -1.8554440006
 H          2.2499442903       -2.3024923996       -3.0474519046
 O          5.3986005541       -2.8214922626        1.7215512269
 H          6.1904632767       -2.7304575874        2.2501311430
 H          5.1897060981       -1.9226154424        1.3520168980
 O          2.5192793703        4.4012873218        1.2351814312
 H          3.0701483303        3.6029247413        1.2160234628
 H          1.6838660715        4.1270025122        1.6485017535
 O         -2.7818670575        2.8114385300       -3.5170918246
 H         -2.8733051944        2.9681608883       -4.4567623141
 H         -1.9957898095        2.2286882026       -3.4036114685
 O          1.8522699226        0.9705010699       -3.7571052463
 H          2.0979845513        0.0425372018       -3.5908047199
 H          2.2991570914        1.4643396122       -3.0455209300
 O         -4.5175130998       -2.6480416389       -0.3325321574
 H         -5.2318318102       -3.2778045149       -0.4380793615
 H         -4.9248563729       -1.7574698690       -0.4696340530
 O          0.7471318162       -3.5738846234       -2.6760361577
 H          0.2543306887       -2.7308326033       -2.5788924542
 H          0.0752647437       -4.2487520065       -2.7883060041
 O         -5.7179594214       -0.2963170703       -0.6123544348
 H         -5.4744877654        0.3650368284       -1.2753392106
 H         -5.7772966492        0.2076529051        0.2171662336
 O         -4.3231563789        3.7733968479        0.9863367381
 H         -3.7425236686        3.9914004209        0.2333551274
 H         -3.7167778815        3.6729576475        1.7339599280
 O         -2.0410545158        0.1740308684        3.9524729959
 H         -3.0228731645        0.1043315841        3.9338656174
 H         -1.7284051896       -0.7307230361        3.8744247610
 O          0.2043092105        3.0730155249        1.9514088545
 H          0.6540229898        2.2819325234        2.2996098795
 H         -0.7361772738        3.0097937524        2.2634060632
 O          1.8164152635        4.6262008662       -1.2699593976
 H          1.7071834966        5.5334792457       -1.5526025523
 H          2.1231390756        4.6540770991       -0.3196122604
 O         -2.0537727670       -3.4696695355       -1.3086570676
 H         -1.6928427571       -2.6588391556       -1.7016884967
 H         -2.9401239892       -3.2377165231       -0.9876896063
 O         -5.6900142597        1.5172605676        1.4769865409
 H         -5.1748886698        2.3314851273        1.2630391204
 H         -6.5198059966        1.8197767751        1.8474867893
 O          3.4699353692        1.7946482860        0.9591852037
 H          2.8012376648        1.4634909474        1.5867700125
 H          4.1224337068        1.0753755813        0.8794425459
 O         -0.6170051416        1.3492664163       -2.9707104026
 H         -0.4133540329        1.8266482837       -2.1517773201
 H          0.2637778791        1.2518874004       -3.4179922906
 O         -4.8716978251        2.0587835802       -1.8469305898
 H         -5.1108549040        2.8757759087       -1.4025551450
 H         -4.1874425236        2.2866476035       -2.4975460662
 O         -0.6247123030       -1.2930434759       -2.2538420219
 H         -0.7533958439       -0.5060347786       -2.8076925178
 H         -0.3324172968       -0.9198570914       -1.3973184895
 O          1.1906948555       -1.6051387045        2.5156687632
 H          0.3621012051       -1.9581629460        2.8673286019
 H          1.8460576612       -2.3344427365        2.5606688459
 O          4.6954790829       -0.5954107303        0.5116851611
 H          3.7519860472       -0.8446625622        0.3795087300
 H          5.0779386656       -0.7294309363       -0.3851551657
 O          3.0871412253        2.2327103913       -1.6788897361
 H          2.7791731398        3.1506244061       -1.6986601687
 H          3.1780793527        2.0083776110       -0.7293678956
 O         -2.5316225067        4.2198997721       -1.0775274125
 H         -1.6734877208        3.8426765520       -0.8255461425
 H         -2.6911398685        3.9168117618       -1.9811728352
 O         -0.1213400430        2.8259308312       -0.6284483336
 H         -0.0193897877        2.9534657808        0.3539806222
 H          0.5475047760        3.4255146849       -1.0084909955
 O          4.7023334877       -3.7782277516       -0.7950441272
 H          5.0093291031       -3.0344552121       -1.3294316429
 H          5.0679758664       -3.6302868050        0.0909360957
 O          1.6627427346        0.9386542576        2.8298469894
 H          1.8705876228        1.0249894554        3.7605216555
 H          1.4645982607       -0.0209482440        2.6807394257
 O         -2.9210824854        0.9614328939        0.1999008774
 H         -3.5293680493        0.2847190275        0.5100198049
 H         -3.3656660398        1.3899401751       -0.5457951146
 O         -0.1451139582        0.1173764933       -0.0004067926
 H         -1.0446097645        0.1484773816        0.3471419580
 H          0.0386617676        1.0324089988       -0.2712202280
 O          6.6145228329        1.8376557731       -0.3676088062
 H          6.1811831031        1.1213382036        0.1014451822
 H          6.4120000226        1.7295887685       -1.3016544734
