  114
       -193.43410577
 O         -2.0819852278        2.8561796915       -3.5467628252
 H         -2.9968353515        2.5007393816       -3.5062702949
 H         -1.9118446643        3.1636512322       -2.6430491595
 O          0.5528740123        2.9649428171       -0.3346526363
 H          0.7478074768        3.5505030263        0.4331074358
 H         -0.3546488894        3.1515352841       -0.5957906064
 O          1.6201058916        0.3620328331        0.5583426229
 H          1.0439471720        0.9779049075        1.0592156638
 H          1.1455027716        0.1211663426       -0.2630771756
 O         -5.0664258295        1.9440904244       -0.2216182352
 H         -5.0735549482        0.9858460048        0.0251169212
 H         -5.9864843525        2.2128541493       -0.2256374364
 O          0.0580572668        1.6833453374        2.2952392151
 H          0.7595903572        2.1294146682        2.8295147916
 H         -0.3307449572        0.9929637771        2.8707498704
 O         -4.4936046660        1.8037718658       -2.9838829292
 H         -4.4163018067        0.8460059743       -3.1145561816
 H         -4.6659602780        1.9144781705       -2.0353914250
 O          4.1352444441        1.7073168081        2.5805732045
 H          4.1386779492        1.8408798943        1.6200550684
 H          3.8987290979        0.7838543344        2.7262458989
 O          1.8824956906       -2.3393090096       -0.1307831646
 H          2.3225207950       -1.8865833806       -0.8754261662
 H          2.5898362855       -2.8886527569        0.2997004549
 O         -1.4070179730       -1.5724594664       -3.8496072976
 H         -0.5650455084       -2.0448338678       -3.9216068200
 H         -1.1717999152       -0.6416817395       -4.0253792350
 O          2.4707912719        3.2587301445       -2.0570808068
 H          1.7001405106        3.1620411072       -1.4284842501
 H          2.5760450887        4.1960384957       -2.2170979885
 O          5.2969931548       -0.2773166529       -0.9355056069
 H          4.7653767442        0.5124906679       -0.6486297388
 H          6.1694087393        0.0421746825       -1.1634689874
 O          1.4801433219        0.2888170977        4.7349910204
 H          2.0272903242       -0.1570320345        4.0661424283
 H          0.5774198905       -0.0194004440        4.5915164127
 O         -0.5508064049        0.9812752924       -4.5071601101
 H         -1.1091243363        1.6977110010       -4.0914263983
 H         -0.7007999609        1.0583623909       -5.4499009715
 O         -3.7996904439       -0.0767904678        3.0951992541
 H         -4.3273209491       -0.2289665645        3.8798993339
 H         -3.8956189384        0.8978895128        2.8901449364
 O         -2.0194695306       -3.6935566657       -1.9923856219
 H         -1.1796099307       -4.0312714000       -1.6559900737
 H         -1.8126275795       -3.0460389160       -2.6819428745
 O          0.6069794531       -4.4056619229       -1.0088188342
 H          1.0553300860       -3.5871902306       -0.6287019617
 H          1.2648024352       -5.1020114724       -0.9752102390
 O         -0.1693332975       -4.3530217955        1.7685171967
 H         -0.0048076742       -4.6650221466        0.8690608170
 H         -0.4855351867       -3.4371525833        1.6580983269
 O         -3.9746576932       -0.9039382740       -2.8642993449
 H         -4.2139162381       -1.5863013713       -2.2181271768
 H         -3.1843874363       -1.2188257828       -3.3235427651
 O         -1.0674148109       -0.4024392666        3.5780610063
 H         -0.8368556666       -0.9954473581        2.8415969965
 H         -2.0308925054       -0.2845586229        3.5108347781
 O          2.0073609224        0.9806225759       -3.4812980723
 H          1.2013644740        1.0906596939       -4.0149123703
 H          2.2201610508        1.8481086212       -3.0954472600
 O          0.8779936915        4.5899349837        1.7748499337
 H         -0.0576811489        4.5926212463        2.0278673678
 H          1.3539390097        4.1852660274        2.5128749956
 O          5.2034091614       -1.8021680859        1.3923211135
 H          5.2869849648       -1.2928112581        0.5697690285
 H          4.4954627780       -1.3788266959        1.9078000736
 O         -4.2810312035       -2.8191346983       -0.8608416086
 H         -4.9414136333       -3.5040314052       -0.9719358407
 H         -3.4305587573       -3.2040167396       -1.1678861376
 O          1.9766254949        2.7891070146        3.7363815950
 H          2.8382647036        2.5483054770        3.3278729825
 H          1.8435666720        2.1040983220        4.4159133715
 O          0.4385954540       -0.3692990122       -1.7491386430
 H          0.9691106970        0.2099603448       -2.3273028537
 H          0.4981398168       -1.2451905769       -2.1600251755
 O          2.8360108714       -0.9319324598        2.5877033974
 H          2.3606678163       -0.5980934254        1.7992072640
 H          2.5221023905       -1.8418234548        2.7364154585
 O          3.6741923110       -3.9221229827        0.9279544681
 H          3.2828284774       -4.0443730969        1.8038901642
 H          4.4091548143       -3.2806894314        1.0647220354
 O          1.9901623405       -3.5207540177        3.0989856089
 H          1.8670801630       -3.6984959034        4.0313906883
 H          1.1946810555       -3.8779426532        2.6355459301
 O         -5.1520182466       -0.5630029233        0.6671617825
 H         -4.8319922507       -1.3263948123        0.1675853851
 H         -4.6943162509       -0.5676275443        1.5251660857
 O         -2.2787186492        3.2003156559       -0.8003725687
 H         -3.2073396679        3.4417551317       -0.8170418733
 H         -2.2733887951        2.1782317157       -0.8619089616
 O          3.1930759111       -1.3112748672       -2.3314001726
 H          2.9073277919       -0.5062021788       -2.7914418668
 H          4.0442414951       -1.0891329609       -1.9177651676
 O         -4.1083280623        2.4165608700        2.3932404664
 H         -3.2655987881        2.9219362447        2.3469094911
 H         -4.4392663430        2.3777254442        1.4815804637
 O         -1.7612704834        3.5886961689        1.8714611113
 H         -1.9124385490        3.5721666350        0.9084119084
 H         -1.1332545064        2.8512605181        2.0436388846
 O          3.7641221531        1.7061317615       -0.1753643632
 H          2.9388058269        1.2197019563        0.0779177421
 H          3.4842415991        2.3303520568       -0.8638757721
 O          0.9962624813       -2.7456871097       -3.2092288416
 H          1.9136946330       -2.4490552407       -3.1264521048
 H          0.8839568979       -3.4912621070       -2.5988088805
 O         -2.1080568048        0.5400168716       -1.0720592086
 H         -1.2245557672        0.2837437312       -1.3932772197
 H         -2.7599062971        0.1464227386       -1.6717591542
 O         -0.5209619677       -1.6900587592        1.1115842809
 H          0.3563121448       -1.7141606211        0.6871246591
 H         -1.0893119193       -1.1767738830        0.5303788964
 O          7.7580757779        0.3046119486        0.1723498990
 H          7.6429161718       -0.5756892367        0.5412984957
 H          7.5333235560        0.9233751642        0.8707136449
