  129
       -218.89008537
 O          4.1032615874        2.7138178879       -2.0173885188
 H          4.0332737086        2.9334306021       -1.0531489315
 H          4.0935971998        3.5537262710       -2.4787359273
 O          5.0987062272        0.2110708823       -0.6021481798
 H          4.9131321741        0.9418683592       -1.1990592481
 H          5.1873967880       -0.5788471865       -1.1466546586
 O         -0.3857643915        4.2664440643        1.7947612506
 H         -1.0445765959        4.2201415407        2.5205012312
 H          0.3244845485        3.6645109115        2.1005189763
 O          2.1211371245        0.9170853562        0.6889463812
 H          2.5142737614        0.0347785813        0.6015557677
 H          1.7650591876        1.1007889483       -0.2124764908
 O         -1.0334038643        0.2483819763       -3.7445613549
 H         -1.6412497568        0.8187583371       -3.2538748703
 H         -1.5589239832       -0.5069433909       -4.0495685608
 O          0.0268425968        3.5103834965       -1.9554351209
 H         -0.7315894956        3.3130776409       -1.3818585675
 H          0.5799172198        4.1370938064       -1.4454278647
 O         -5.8427619246        0.8263549842        1.0405850268
 H         -5.7581801841       -0.0957241384        1.3131438174
 H         -5.0929748557        1.3054766025        1.4481004909
 O         -1.6849887323        2.7225522324        0.0868334365
 H         -1.2380609353        3.3834669452        0.6723613423
 H         -1.2010231718        1.8767429321        0.2244408991
 O          0.2084515340       -1.1158236963       -1.6170330770
 H         -0.0414849505       -0.6601870511       -2.4375114773
 H         -0.1646112124       -0.5658711597       -0.9011287707
 O         -4.4140438664       -3.6463813236       -3.4842884993
 H         -3.8382910273       -4.2448506913       -2.9743349812
 H         -4.8953597344       -3.1120194241       -2.8318181004
 O          3.2157341675        3.1165455585        4.4291900246
 H          2.9768535078        3.9737465033        4.7833031039
 H          2.5157862874        2.8929693711        3.7545977369
 O         -2.9179197394        1.2549784547       -1.9220535041
 H         -2.6198577312        1.9170964432       -1.2846384416
 H         -3.8912885210        1.2302868427       -1.8778257043
 O          0.3941360877       -0.7285212866        2.7218121368
 H         -0.0692963036       -1.5733556714        2.8047526591
 H          1.3227362172       -0.8669633052        2.9802767290
 O         -1.3199092781       -3.2675862429       -0.0925426717
 H         -0.4072543194       -3.4600246869       -0.4612332035
 H         -1.6299294626       -2.4469121219       -0.5350382988
 O          2.1240674564        0.7613542745        5.5723501498
 H          2.6284533639        1.5678421846        5.3957876201
 H          2.4420685436        0.1116379487        4.9230306738
 O         -2.3205003192       -4.8672644587       -2.1522452849
 H         -1.6480770082       -4.7676091612       -2.8374800324
 H         -2.0005531906       -4.3353242866       -1.4042352756
 O         -2.2904137313       -2.1548557106       -3.9990710578
 H         -3.1398794091       -2.6581032402       -4.0039335204
 H         -1.5859317023       -2.8225316347       -4.0708410079
 O         -2.5761149365       -1.3640650400       -1.4674125208
 H         -2.3784448956       -1.6641997846       -2.3854629613
 H         -2.5834885062       -0.3858280720       -1.5163399672
 O          5.2731318709        2.8177534446        2.7564692923
 H          4.5739976065        2.9421796350        3.4383367203
 H          6.1039209675        3.0862587954        3.1479111398
 O          4.8301980535        0.1436564473        2.1119571866
 H          5.0379870235        1.0629524706        2.3410112688
 H          4.9037554317        0.0918863253        1.1432370472
 O         -3.6373155102       -4.3335971491        1.0191532302
 H         -4.0170853269       -4.9649355646        0.4061983065
 H         -2.8419817454       -3.9873205733        0.5803122666
 O         -1.2511756958       -2.9146989660        2.5317288172
 H         -1.8309687981       -3.5952015204        2.8774317260
 H         -1.2076788122       -3.0701962083        1.5554713318
 O         -0.7290294489        0.2770790522        0.4859987998
 H         -1.5690488399       -0.1301649595        0.7838898369
 H         -0.1000534047        0.0777920665        1.2022361073
 O         -5.0750836823       -1.9794750953        1.1547800872
 H         -5.2531849242       -1.9466800230        0.1873209022
 H         -4.7372666780       -2.8786749478        1.3046417744
 O          1.5573754441        4.8710753006       -0.1875938619
 H          2.2883489181        4.3323260629        0.1525238704
 H          0.9035498043        4.9288739379        0.5216152873
 O          2.9611270305       -0.9722126262        3.5488294446
 H          3.6292258908       -0.5132678057        2.9736413036
 H          3.3890923610       -1.7669271014        3.8669625162
 O         -5.6008208612        0.9189357866       -1.5627192789
 H         -5.7141080581        0.9118168882       -0.5713136354
 H         -6.2989361566        1.4742956442       -1.9081254067
 O         -0.2706057254        1.2298070474        4.4405661356
 H         -0.2871433740        0.4282280174        3.8843513664
 H          0.4501039366        1.0724862067        5.0856790823
 O         -2.0069209124        3.3896447205        3.7419621697
 H         -2.7063701564        2.9288351372        3.2473349620
 H         -1.4909121149        2.6925684565        4.1696700997
 O          1.6404624195        1.4787812869       -1.8460125028
 H          2.4982514601        1.9162739839       -1.9781496234
 H          0.9578498412        2.1948849598       -1.9625944018
 O         -0.3153961542       -4.0723293440       -4.1048670466
 H         -0.2262803555       -4.4539476916       -4.9786973341
 H          0.5016149931       -3.5489258685       -3.9517610847
 O         -2.8129121577       -0.7489295717        1.7715044370
 H         -3.6668170290       -1.1630660972        1.5006671116
 H         -2.3259114889       -1.4367800715        2.2514205296
 O         -5.1734480818       -1.8251147983       -1.5083292231
 H         -5.5183887294       -0.9440059250       -1.7169836716
 H         -4.1929018111       -1.6972759562       -1.4673288006
 O          1.6335039228        0.0828377454       -4.1292468028
 H          1.6148320751        0.5031857960       -3.2389844732
 H          0.7436254224        0.2395157722       -4.4682162503
 O          4.3385645514        0.3998136066       -3.7537275361
 H          4.3444693421        1.2470201445       -3.2944947373
 H          3.4625110064        0.3193267217       -4.1609447593
 O          4.2479735406       -2.0049902659       -2.4392663012
 H          3.6785546933       -1.7874686171       -1.6781479207
 H          4.3536447673       -1.1876065746       -2.9610012813
 O          3.6444475516        3.1107593283        0.5437574614
 H          3.1453656860        2.2726071868        0.6810821323
 H          4.3290927685        3.1225502591        1.2269174956
 O          1.8833758203       -2.5937603363       -3.6998055702
 H          1.7295739939       -1.6503843660       -3.9098229923
 H          2.8002769915       -2.6193137766       -3.3673949738
 O          1.3357564680        2.4558890995        2.7433896097
 H          1.5769965120        1.7950020200        2.0670671023
 H          0.6885528788        2.0214995559        3.3545125188
 O         -3.5009750810        1.8714458881        1.9612058803
 H         -3.1773809355        0.9575037444        2.0597972194
 H         -2.9898303597        2.2545054867        1.2214260823
 O          2.5078957222       -1.5251570774       -0.3670965340
 H          2.2902428012       -2.3188200229        0.1324159058
 H          1.7317566204       -1.3618253158       -0.9544314494
 O          1.5650544844       -3.3300385285        1.6408036161
 H          2.1454283273       -2.8328736028        2.2220041379
 H          0.7244689636       -3.4313263895        2.1016360010
 O         -2.3433503853       -1.0508094781        4.5942670328
 H         -3.2746438879       -0.9056920657        4.4186091287
 H         -1.9813086132       -0.2121840937        4.8939085590
