  376
       -636.83041711
 H         -0.4083531447       -0.6877058616       -0.7203391060
 O          0.5784062511       -2.6206438475       -2.4666763785
 H          1.4994291733       -2.3249206600       -2.6420223109
 H          0.5679965115       -2.9497881467       -1.5542070115
 O         -1.2728616969       -0.0475731305       -1.7868480383
 H         -2.2358110875       -0.1549403424       -1.7501829554
 H         -1.0875979539        0.8809826600       -2.0117903074
 O         -3.6842975955       -2.8649553489       -6.4270051284
 H         -4.4315919657       -3.1338832891       -6.9602213963
 H         -3.4348744913       -3.6330063991       -5.8722857227
 O         -1.0213200941        5.3449517259       -1.5699486294
 H         -1.1333950717        6.1562819404       -2.0695873198
 H         -1.8019089696        5.2341133583       -1.0087453243
 O         -2.2745371090        2.3107931198        0.1677098810
 H         -1.9838970828        1.4248965611        0.4323246064
 H         -2.9557426825        2.1679559471       -0.4967709522
 O          0.3562458696       -1.0582880723       -0.1529150228
 H          1.0261840637       -0.2777551759       -0.0504618363
 H          0.0280219689       -1.3079109954        0.7992102189
 O          1.6350457198        1.7037750474       -2.5419076933
 H          1.4744019184        2.6597374174       -2.5874041266
 H          2.5807923276        1.5535296555       -2.7600867875
 O          3.7868379341       -1.0188063291       -0.7256538458
 H          3.4175958840       -1.6638652899       -0.1035578717
 H          3.4550015485       -1.2655638363       -1.6183661581
 O         -3.4869786957       -4.8900941833       -1.3096453356
 H         -3.0734068820       -4.0397531498       -1.0353509053
 H         -4.2533895390       -4.6383045288       -1.8495722842
 O         -2.4038293738       -0.4460287517        0.7071952728
 H         -2.1296857523       -0.6870763765        1.5972057889
 H         -3.3032220395       -0.0648079859        0.7461038657
 O         -3.7235785420        2.0119705023       -4.8917754156
 H         -3.1452541879        1.2225403173       -4.7651027087
 H         -4.6259581268        1.6276907264       -5.0600994137
 O         -7.4434268806       -0.8676088210        4.0199602945
 H         -6.9214947118       -1.6409025489        4.2823326492
 H         -7.0535283869       -0.1256866268        4.5074506094
 O         -3.1125912503       -4.6389201647       -4.5338209746
 H         -2.6628500777       -3.8994264714       -4.0648937339
 H         -2.6111165395       -5.4295372958       -4.3072666784
 O          0.6765714626        2.1209509822        4.1054426937
 H          1.3337966833        2.2432448838        3.3807369289
 H          0.5691712680        1.1621443444        4.2564982166
 O          2.0402906855       -0.0908024838        2.6803869283
 H          2.3214675727        0.0757585184        3.5977303199
 H          2.8749629689       -0.0951195260        2.1813705648
 O         -4.2233057055        3.2965225888        5.2823017301
 H         -3.4210867052        2.8063190046        5.5452671622
 H         -3.8997826665        4.1724910270        5.0219621197
 O          2.0300639339        0.8250224954       -0.1020854581
 H          1.8096440824        1.2585121518       -0.9613379874
 H          2.8437347478        0.3006382935       -0.2640926873
 O          2.3361896298        2.5893326799        2.0896949911
 H          3.2865516115        2.6543270621        2.2563148218
 H          2.2339982651        2.0280736677        1.3061619140
 O          3.1450172134        0.3480532668        5.1294709766
 H          3.5090260225        1.2532672148        5.0903519329
 H          3.8950885104       -0.2486739098        5.0553055458
 O         -2.2764537973       -2.6476259157       -0.7568144291
 H         -2.4051039912       -1.8327861597       -0.2256554693
 H         -2.2409980808       -2.3913725045       -1.6958502475
 O          5.9559665282        4.5078503684       -0.3831986288
 H          5.5033757956        5.3713364521       -0.3514382302
 H          6.8966279069        4.6687741750       -0.4408748830
 O         -4.3862569500       -0.5238449229        3.1843879496
 H         -3.4610109800       -0.2126739280        3.2851034220
 H         -4.9321620447        0.1697206559        3.5952454077
 O          1.3204528840        4.4114426173       -2.6016372267
 H          0.4184181526        4.5803664538       -2.2782506717
 H          1.7636326121        5.2774991568       -2.5135208139
 O         -1.9933421203       -2.4734640142       -3.4092600623
 H         -1.0421602383       -2.5410175319       -3.2343799907
 H         -2.1391653979       -1.5935263664       -3.8161718710
 O         -0.0302303322       -3.8877819826        0.0076113540
 H         -0.9009114546       -3.4803172881       -0.1848870164
 H         -0.0058800265       -3.9983465898        0.9736594561
 O          1.5069586830       -3.9035743462        6.2601727644
 H          0.6634969597       -3.4098430546        6.4140943450
 H          2.0103294546       -3.8391043858        7.0713599286
 O          2.7356133519       -2.5441459421        1.3964387960
 H          2.3372058595       -3.4080196406        1.2047134498
 H          2.4570376330       -2.3203785971        2.3008200201
 O          5.7092991712       -0.5922857488       -3.8976121338
 H          5.5839191686       -1.4394539896       -3.4353422858
 H          5.4788339263       -0.7475323429       -4.8214826660
 O         -2.1696316213       -0.0991872085       -4.6339210008
 H         -2.0868425999       -0.3806806594       -5.5710999828
 H         -1.2477477323        0.0846421994       -4.3370596560
 O          0.3587610730       -0.1700601726       -3.9338284355
 H          0.3300058790       -0.8595788623       -3.2564143640
 H          0.7577260687        0.6112295374       -3.4969423257
 O         -0.3220006525        4.5652480168        5.4245934059
 H          0.3307007231        4.7489409719        4.7325061964
 H          0.2083754774        4.3390774793        6.1977345910
 O         -5.7673058743       -4.6118835386        1.4424412237
 H         -6.3625823002       -4.6398030230        0.6857724023
 H         -5.3803071143       -3.7074484318        1.4076678436
 O         -3.9968655447       -0.3410231800       -1.9516714043
 H         -4.7523284312       -0.6403357258       -1.4303716122
 H         -4.1018909823        0.6246567786       -2.0303384506
 O         -0.1662906523       -1.5823003519        2.2467048255
 H          0.6574312494       -1.1793201744        2.5753299720
 H         -0.1400886255       -2.5311499560        2.4720407636
 O          1.8811036711       -5.6788165360        4.1610383036
 H          1.7402912705       -5.2570737190        5.0206974029
 H          2.8227286921       -5.5916504320        3.9516857084
 O          0.3740198584        3.1007299111       -0.1742099578
 H         -0.2080356229        3.0084203293       -0.9513900765
 H          0.2068379708        2.3246548836        0.3918594232
 O          2.9078928450        0.4608212160       -5.0279646593
 H          2.0550533565        0.8771673116       -5.2336762460
 H          3.5485386230        1.1950697727       -4.9742300599
 O          2.8796420107       -1.5238281801       -3.1834959567
 H          2.8272432633       -0.7378387371       -3.7601120424
 H          3.2993448923       -2.2231760827       -3.7377497892
 O         -6.9339639865        2.8442955028        2.2833516632
 H         -7.5254918876        3.1098409178        2.9865680509
 H         -6.1668458409        3.4536512775        2.3325171508
 O          1.8715233365        7.0976269536        0.2118493161
 H          1.5144638292        7.8722620026        0.6450423525
 H          1.4334170042        6.3176409845        0.6442383506
 O          0.1191326808       -4.1849206027        2.7383461587
 H         -0.7023954271       -4.5275189024        3.1340549689
 H          0.8380378973       -4.6470876381        3.2039538855
 O         -0.1559907617        1.0944739753        1.5304675056
 H          0.6912264537        0.7765535407        1.8778790729
 H         -0.8204805893        0.8518348018        2.1988152445
 O         -5.2769568560       -2.4215053856        4.8314483512
 H         -4.8643395950       -1.8091026047        4.1772052973
 H         -5.0144530100       -2.0717234234        5.6886745045
 O         -4.6966068385        0.9642533008        0.6878146027
 H         -4.3622331078        1.5009980311        1.4427915054
 H         -5.4929189846        0.5246724357        1.0396447202
 O          5.8280249291        0.6917588566        4.1977722443
 H          5.2996187915        0.7057300621        3.3672581800
 H          6.7059301904        0.9816252723        3.9486030945
 O          4.0119069084       -3.2592753889       -4.8459330037
 H          3.2464592171       -3.6921835046       -5.2964934012
 H          4.3407308855       -2.6263213177       -5.5059570026
 O         -1.0401175114        4.4536241630       -4.4407877298
 H         -1.9881945790        4.6575775851       -4.2700847037
 H         -1.0361016137        4.0622409775       -5.3232924800
 O         -7.0730209521       -3.8132101131       -1.0386715622
 H         -7.9473088604       -4.0583591078       -1.3421091356
 H         -6.4662630224       -3.9735312234       -1.7877342119
 O         -5.3584514714       -4.0126970365       -3.1216559287
 H         -5.3123424967       -3.0800122896       -3.4305373240
 H         -4.7559010685       -4.4798838591       -3.7264662641
 O          5.2699093869       -3.2001059915        1.9043432694
 H          5.6173767914       -3.6616692861        1.0937079676
 H          4.3739653622       -2.8686000971        1.6526334154
 O          6.0714685559       -4.4561367530       -0.2322521642
 H          5.5464541047       -5.2672832302       -0.3974211938
 H          6.0419601444       -3.9620748020       -1.0661006921
 O          1.5036981562        0.3696569495        7.3015353781
 H          2.2731149918        0.1152978339        6.7703637890
 H          1.4842108294        1.3437291533        7.2132501962
 O          0.2903011994       -4.7989253711       -4.0494647651
 H          0.3894214781       -4.0139838209       -3.4758541916
 H         -0.4327076933       -5.3301119578       -3.6654920899
 O          2.0740800335        4.8318041149        3.8365655069
 H          2.5319090463        4.1039757230        4.2681717803
 H          2.7328275557        5.2031428893        3.2260194402
 O         -4.8885858959       -1.5983756965       -4.1798258432
 H         -4.2687616276       -1.8397611703       -4.8830801713
 H         -4.3929589167       -1.1385970474       -3.4697947322
 O         -3.7421565619        2.3315682214       -2.2593584852
 H         -4.2163497995        3.1642934644       -2.0475250372
 H         -3.7893514595        2.2472493229       -3.2392952445
 O          5.0046156459        3.0472315464        2.6197776880
 H          4.8960946960        3.9521752080        2.2812775326
 H          5.8385890884        2.6784170497        2.2653142063
 O         -1.6647777056        6.4900657313        1.8155715075
 H         -0.7959356883        6.0432955699        1.7532437367
 H         -2.0090709790        6.3100418563        2.7028053369
 O         -1.2360625821        0.0819766806        7.4227772508
 H         -0.4200958990        0.3597696393        7.8518963002
 H         -1.0635542253       -0.8475312636        7.1763629003
 O          4.5480569169        0.2137824014        1.8832144759
 H          5.3250178037       -0.3471234899        1.7116530232
 H          4.5533672468        0.8913913889        1.1735031465
 O          4.4025236029       -5.4165891076        3.0363302553
 H          5.0449615510       -6.1118519644        2.8940861467
 H          4.8246258035       -4.5730068547        2.7351725295
 O         -3.3768065102       -5.8210307380        1.1575482400
 H         -4.2951818921       -5.5661522238        1.3737829808
 H         -3.3188572595       -5.6571332691        0.1961131541
 O         -1.6167017758        2.7535309687       -6.5354223815
 H         -2.4493503080        2.5251305664       -6.0865937373
 H         -1.5936587055        2.2664356490       -7.3753234241
 O         -1.6191509438       -6.1992514981       -2.7485170575
 H         -0.9703672628       -6.5121398103       -2.0980912772
 H         -2.3113180586       -5.7541212929       -2.2177604700
 O          4.5197794059        6.8410246198       -0.5691874432
 H          4.5603741934        7.1066219782       -1.4899139623
 H          3.5800620181        6.9082076509       -0.3191860888
 O         -1.9620293754       -5.4322836766        4.0300207371
 H         -2.9052117186       -5.2158425092        3.8525716874
 H         -1.8415393168       -6.3301105387        3.6964646186
 O         -3.6535599116        4.8086894650       -4.2002989399
 H         -3.9491537130        3.9814825011       -4.5993408969
 H         -4.1650863950        4.9297492310       -3.3868725052
 O          7.1171577182        1.8244742607       -1.0502618279
 H          7.0192193726        0.8576690167       -1.0768273549
 H          7.1069207575        2.0935174127       -1.9886899061
 O         -6.3022209386        2.8144114345       -0.4105631438
 H         -6.8301264975        3.0017770058        0.3745196791
 H         -5.6128217682        2.1848867641       -0.0980656142
 O          0.2988175385       -6.3811975843       -0.8125535315
 H          0.4431586535       -6.8799053417       -0.0032177980
 H          0.1733651922       -5.4391648101       -0.5332828801
 O          4.3951272105        4.0354524883       -2.5607291663
 H          4.3735045816        3.1001575677       -2.8302053818
 H          5.1275620416        4.1148433087       -1.9259582306
 O          0.7201664499       -1.4855816284       -6.2941140441
 H          1.1095668265       -0.8511782065       -6.9368792486
 H          0.7116535076       -1.0204669230       -5.4354883120
 O         -1.9011552362       -7.6435526576        2.3705999278
 H         -2.4692156171       -7.0230878440        1.8560885990
 H         -2.2596653469       -8.5214047034        2.2457412296
 O         -2.7293142717       -4.3718717219        6.3870787312
 H         -3.6109978414       -4.7262096100        6.5076197789
 H         -2.3136698841       -4.9110990417        5.6862137846
 O          3.0746055865       -3.6996899500       -1.3989931804
 H          2.8113949699       -4.4452191847       -1.9828348188
 H          3.0343405759       -4.0769797832       -0.5148962792
 O         -1.0569730003        2.5612958760       -2.4584221646
 H         -2.0162000933        2.6257956205       -2.3026282723
 H         -0.8746001451        3.1738107999       -3.1916932579
 O          0.8722880177        2.0507434129       -5.7993690627
 H          1.3138553426        2.9055858178       -5.6884003113
 H         -0.0689234852        2.2444628085       -5.9685204476
 O         -2.6361082485        5.2208001469        4.0979955014
 H         -2.0005208855        5.3493501044        4.8131523162
 H         -2.2201817169        4.5145785679        3.5596075548
 O         -4.8711576044        4.6715753858       -1.6955157808
 H         -5.6114695979        4.2122341353       -1.2563273569
 H         -4.2808299287        4.9611977120       -0.9792243478
 O         -7.0837705388        0.1163706188        1.5878520671
 H         -7.2348591774        1.0513308627        1.7917283907
 H         -7.2616938863       -0.3559246773        2.4345696173
 O         -0.7348857019       -2.5167826009        6.5884664689
 H         -1.0148739280       -2.3051788512        5.6709769520
 H         -1.3970103224       -3.1536159535        6.8929616993
 O          6.7866942614        2.0608563795       -3.7328716765
 H          6.0072553263        2.4384513871       -4.1647622698
 H          6.7137102951        1.1081348764       -3.8717047821
 O         -3.6465416412       -0.5720425219        6.1452514150
 H         -3.1043290007       -1.0003830125        5.4600880041
 H         -3.0295043346       -0.2040515334        6.7848137732
 O         -1.3093586691        1.0157096932       -8.6560421061
 H         -1.8260988608        0.9774214411       -9.4602246614
 H         -1.5361771038        0.2188902744       -8.1302422141
 O          2.2867848468       -5.9266569156       -2.6111653496
 H          1.7493097369       -5.6566586382       -3.3770737035
 H          1.6293224608       -6.2328190954       -1.9557125725
 O          1.8375806917       -3.9899856562       -6.1304594829
 H          1.2330780373       -4.4372519885       -5.5193266942
 H          1.4414184481       -3.1152559661       -6.2868401141
 O         -6.8262045477        1.0489422287       -2.4561062220
 H         -6.7659442897        0.2281477155       -1.9514237757
 H         -6.7594783174        1.7719744725       -1.8131323072
 O         -5.6584515495        0.9550892821        5.0812198077
 H         -5.0119037714        0.4490048724        5.6073451275
 H         -5.4292623567        1.8829676090        5.2172387074
 O          4.9467353907       -1.8728770970        4.3919819524
 H          5.2047447580       -2.3777661224        3.6105844788
 H          5.4861526313       -1.0613482682        4.3684399411
 O         -4.5709222026       -4.8670056163        3.9789397632
 H         -4.8446278950       -4.0018575035        4.3424424840
 H         -5.1310021752       -4.9889516716        3.2043906346
 O          0.3489442019       -0.4933874960        4.9261527914
 H          1.0027572598       -1.1533488367        4.6413242578
 H          0.5937660674       -0.2554926613        5.8361402028
 O          4.3262083254       -6.4544551638       -0.7201959886
 H          3.9210241446       -6.4948176610       -1.5944928668
 H          3.6138623898       -6.1741197310       -0.1209832113
 O          2.2561747487       -2.3724374318        4.1274772355
 H          3.1930350141       -2.1638054522        4.2891228763
 H          2.0119897069       -3.0288211814        4.7993486833
 O          0.7258723835       -7.0248220078        1.9395348438
 H         -0.2073890921       -7.2666481776        2.0728651336
 H          1.0756405408       -6.8509111648        2.8228651101
 O         -3.0721351868        4.8951325925        0.3091162157
 H         -2.7020672563        4.0029772646        0.4305662895
 H         -2.5474937851        5.5303419465        0.8655473075
 O         -4.6985483631       -2.1889148717        1.1474580512
 H         -4.7130182170       -1.5493440293        1.8857443630
 H         -5.1994314659       -1.7941828440        0.4149442355
 O         -1.8522590261        0.3149022800        3.5109524079
 H         -1.9096546753        1.0158460217        4.1898060094
 H         -1.2589923849       -0.3601259193        3.8743261372
 O         -2.2949851760       -2.3316122759        4.4345653350
 H         -2.2544999811       -2.6556270356        3.5069907096
 H         -2.7216092801       -3.0426011730        4.9312177384
 O         -3.7962589953        2.2002672709        2.8020954509
 H         -2.9007963865        2.5630340976        2.7098839727
 H         -4.1811151321        2.6082642574        3.5909540596
 O          5.4021137226       -3.0356400972       -2.5234014877
 H          4.5318075096       -3.1627408919       -2.0706799489
 H          5.2718277166       -3.4749831550       -3.3739777096
 O          2.2725017086        4.2698505964       -5.1021082848
 H          2.8327426818        5.0743743968       -5.0633787669
 H          1.8219973724        4.2562273776       -4.2303611521
 O          1.4282210247        0.4975857464       -7.9310966341
 H          0.6500099277        0.6392647834       -8.4831826262
 H          1.3397483706        1.1613025551       -7.2178611231
 O          3.8935121741        5.3728202769        1.8445182882
 H          3.4670801496        4.9060109338        1.0901657587
 H          4.2938650602        6.1608179857        1.4756544946
 O          2.5695081474       -5.2277802464        1.0274501625
 H          1.8067649343       -5.7923939433        1.2352212931
 H          3.1910522271       -5.3463403668        1.7699593631
 O          3.9771638569        6.1242870471       -4.2616735727
 H          4.2826409741        5.3988782695       -3.6852211628
 H          3.3707899513        6.6451667128       -3.7176325498
 O          0.6328756586        5.1480874081        1.4666488607
 H          0.4865574089        4.4102598621        0.8319683782
 H          1.1041870675        4.7774443807        2.2294618374
 O         -1.8097488008        2.0794267289        5.5652841914
 H         -1.5246117514        1.4738089210        6.2708416645
 H         -1.1889284225        2.8239121413        5.5210864781
 O         -1.7615872628       -1.0739190141       -7.0582649892
 H         -0.8546249356       -1.3997628005       -6.8310861956
 H         -2.3774876776       -1.8218957177       -7.0025422004
 O         -6.0043800990        0.7726659803       -5.0194617343
 H         -6.4485587614        1.0181923355       -4.1880490261
 H         -5.7419449905       -0.1532646308       -4.8755257748
 O         -1.3248827975        3.3431864620        2.6997215981
 H         -0.6258823016        2.9370116223        3.2504937538
 H         -1.1403999865        3.0864959084        1.7882654686
 O          1.6090404597        2.9170092504        6.4629365793
 H          1.2558067316        2.6295079348        5.5836713112
 H          2.5393683518        3.1025855619        6.3062779898
 O          4.2091293526        1.3091966383       -2.6602017102
 H          4.4043295321        1.3226744833       -1.7014529997
 H          4.7405470264        0.6015296797       -3.0670974585
 O          7.2431833004        1.8063485088        1.7210544428
 H          7.2768182847        0.8410667976        1.7720979901
 H          7.3896884263        2.0111589217        0.7862929302
 O          2.0329478047        6.9941408514       -2.4940373123
 H          1.8482704228        7.1288454137       -1.5476627082
 H          1.1981138113        7.1580774466       -2.9698439070
 O          4.1161875140        2.9013088506        5.0958998910
 H          4.4734799669        2.9379457611        4.1731307782
 H          4.8899895926        2.8376011797        5.6567521177
 O         -4.9976294417        4.7452553685        2.2786426596
 H         -4.4196778035        4.7843287774        1.4952514147
 H         -4.4761396019        5.1023426328        3.0019622624
 O          6.4297802059       -0.8631999875       -0.9934833430
 H          6.6208004159       -1.5885422505       -1.5933422858
 H          5.4489014597       -0.8675231234       -0.8862520181
 O          6.9279274334       -1.0231570242        1.6003625279
 H          6.6394079622       -1.9164808973        1.8390939868
 H          6.9488327220       -1.0130441091        0.6205546652
 O          4.6073659242        1.9356254627       -0.1100078407
 H          4.0600298510        2.7488457541       -0.0584970622
 H          5.5240968292        2.2084898972       -0.2973385532
 O          4.4197503581        2.6873924836       -5.2211664416
 H          3.6416575269        3.2899054068       -5.1269956543
 H          4.7944522933        2.8678450367       -6.0828812591
 O         -0.3296135769        6.9781453252       -3.8273143533
 H         -0.4735578461        6.0433682164       -4.0977201792
 H         -0.6004092151        7.5232016721       -4.5647921598
 O          4.5089899047       -1.1001732835       -6.4433338190
 H          4.3440843018       -1.1307151267       -7.3851746250
 H          3.7939325093       -0.5483695681       -6.0519169560
 O          2.9395427678        4.0140657641       -0.2754047677
 H          3.2259053973        4.2027058117       -1.1866687082
 H          2.0183406508        3.6934750146       -0.3187775280
 O         -6.4145172236       -1.1755909500       -0.7049840064
 H         -6.8920507666       -0.7562793413        0.0337780839
 H         -6.7907630009       -2.0651149546       -0.8364918162
 O         -2.4038775533       -3.3615367654        1.9694045646
 H         -2.5981911170       -4.2957168043        1.7936102579
 H         -3.1311007107       -2.8767266224        1.5528466621
