  131
       -218.46308714
 H          2.2906127695        0.7911284585       -1.4351735903
 C          2.1321308021        0.1491557527       -0.5671755903
 H          3.0020459650       -0.4959449221       -0.4324104490
 C          0.8739980178       -0.6894560968       -0.7693956080
 H          0.6406218502       -1.2391305332        0.1438779345
 H          1.0533099596       -1.3990476873       -1.5751238491
 N         -0.2775410103        0.1394078658       -1.1192147218
 H         -0.4610807748        0.7763916516       -0.3513544992
 H         -0.0228631544        0.6994808052       -1.9336274210
 O          1.9886518227        1.0241650002        0.5449944201
 H          1.9119704402        0.4466029883        1.3415520175
 O          2.7287355121       -3.3362289468        1.2653306676
 H          3.6443249051       -3.1204288857        0.9671432453
 H          2.2347010739       -3.5781850268        0.4634499466
 O          3.7432296863        0.8808954522       -3.4196095019
 H          2.8101663343        0.8762284175       -3.6611080080
 H          3.9485312073        0.0197972051       -3.0060966370
 O          4.1454430280        0.5799605384        4.7473627263
 H          4.0235775493        1.4868541494        4.4347251367
 H          4.6045212102        0.1262047462        4.0211059405
 O         -5.2972530644        0.5220857868        1.0054471446
 H         -5.6328255737       -0.2306448741        1.5183260765
 H         -4.9654338763        1.1687551471        1.6514740271
 O          1.1342404450        3.7871004785       -3.5102759467
 H          1.8705210045        4.1611692824       -2.9798942569
 H          0.3326640815        3.9757070281       -3.0047547219
 O         -0.9726511303       -0.8308877484        3.6893421378
 H         -0.2435081143       -0.6846263617        4.3048920186
 H         -0.6197090689       -1.4593697530        3.0098814687
 O         -1.5548844485        1.0676311811        1.9478872705
 H         -1.0528454462        1.9082801368        2.0112749023
 H         -1.2285483839        0.4593243026        2.6498099851
 O          4.8939717894       -0.3417332993        2.1974829894
 H          4.9529505636        0.5071898074        1.7298029347
 H          3.9337446171       -0.5522778863        2.2365648593
 O         -2.7328220518       -2.8475951934        0.5964835076
 H         -2.7059320218       -1.8971915554        0.3226339643
 H         -3.6217550268       -3.1417908406        0.3433201644
 O          1.3803770035       -4.2581334519       -0.9461543360
 H          1.5004021539       -5.2084426928       -0.9405626791
 H          0.4122019697       -4.1056586089       -1.1031962428
 O          1.2350426753       -4.4240084178        3.1848637793
 H          1.9407107186       -4.2089755288        2.5415024820
 H          1.5633467197       -4.1569849498        4.0444377703
 O         -2.8277826153        1.7638424222       -1.7747012863
 H         -2.7189311367        0.9825300725       -1.1916326285
 H         -2.5814016867        1.4479267199       -2.6779861995
 O         -0.7579632039        3.6226834464        1.9673836803
 H         -0.0159600583        3.7570577820        1.3387248375
 H         -1.5631672622        3.8498166553        1.4710619818
 O         -3.3423837291       -2.1947395474        3.2063120746
 H         -3.0001075498       -2.5457911639        2.3637911907
 H         -2.6354001284       -1.6322869249        3.5605902929
 O          0.7394191479        1.1876553556       -3.7117875650
 H          0.9908735258        2.1443243518       -3.6939688601
 H         -0.1392302537        1.1842616102       -4.1157782149
 O         -3.0908757245        3.6728776849        0.4444650399
 H         -3.5901148613        3.2743408576        1.1729428577
 H         -3.1669842347        3.0580203659       -0.2956639965
 O         -4.1470249259       -0.8465345718       -4.9432082163
 H         -4.0078254517       -1.6347951974       -5.4684782116
 H         -4.3824125099       -1.1457333686       -4.0507004853
 O         -5.4693681600        0.9190673518       -1.7290568809
 H         -5.6287903142        0.8990915307       -0.7746534660
 H         -4.6679653460        1.4520429408       -1.8606556265
 O         -4.4822149214       -1.4989059609       -2.2233000506
 H         -4.8403290125       -2.0721973762       -1.5336142595
 H         -4.8919229877       -0.6119058548       -2.0720220357
 O          1.1285740605        3.5730710213        0.0838590477
 H          0.4544984312        3.5617371613       -0.6240855709
 H          1.4211114872        2.6538178384        0.2159811826
 O          0.6469543410       -1.6089255648       -4.0338488027
 H          0.8015333195       -0.6542281406       -4.0024678364
 H         -0.2254884127       -1.7518724856       -3.6483115298
 O          1.5425915062       -0.1970584523        4.7686121127
 H          2.4813663755       -0.0625086724        5.0101700942
 H          1.2834080540        0.6713805466        4.4067607876
 O          1.1060628390        2.0887709584        3.4048930104
 H          2.0035096750        2.4530739383        3.3449790140
 H          0.5006714871        2.8010605033        3.1756890236
 O          4.8627774042        2.6456166332       -1.7876535098
 H          4.4174752905        2.0055303556       -2.3974703941
 H          5.6711344552        2.9063716973       -2.2290877315
 O         -3.8689813961        2.1266051695        2.6395389603
 H         -2.9984137382        1.6892132101        2.4402377462
 H         -3.7979235385        2.4894869307        3.5217707932
 O          4.4571955320        2.0478489784        0.8708395944
 H          4.7679665347        2.3329231457       -0.0035122246
 H          3.5448696650        1.7238308346        0.7167670841
 O          2.2732724815       -0.9018964622        2.2989877191
 H          1.9452850183       -0.8429784004        3.2190843700
 H          2.2548391661       -1.8325548251        1.9964716029
 O          2.9508063989        4.6427163478       -1.7073161841
 H          2.4081260481        4.4192430444       -0.9330428949
 H          3.6798801309        4.0008481710       -1.7171011754
 O          5.0623031540       -2.4191473759        0.3967178750
 H          5.2018719154       -1.6971137826        1.0381858941
 H          4.8999967378       -2.0055364465       -0.4672634127
 O          3.7254305371        3.0166426637        3.2742825206
 H          3.9895811713        3.9297689028        3.3851669542
 H          4.0769736698        2.7259274502        2.4068720918
 O          2.6989323522       -3.1008979795       -3.0506142049
 H          1.9935451612       -2.6183214097       -3.5222783966
 H          2.2642218604       -3.5447805204       -2.3000973333
 O         -5.7876155960       -1.7552747814        2.4158233424
 H         -4.8692670166       -1.8764006639        2.7841310218
 H         -6.3913170297       -2.0036159800        3.1157303739
 O         -5.4114285457       -3.0196740457        0.0203317283
 H         -6.0671199703       -3.7067722417       -0.0980477666
 H         -5.6428025384       -2.5364714098        0.8391348138
 O         -2.0475375384        0.6677402557       -4.0669787405
 H         -2.8122673475        0.4575299814       -4.6254757866
 H         -1.8499904621       -0.1857670253       -3.6241394410
 O          4.5062564113       -1.4502336007       -2.1878406245
 H          3.8106022023       -2.0982658314       -2.5009553256
 H          5.3102664118       -1.7018525055       -2.6450733935
 O         -2.9060010230       -0.2492804596        0.0553426891
 H         -3.8210883147       -0.0400056574        0.3448185252
 H         -2.3212545850        0.1616347644        0.7209132787
 O         -1.7955583808       -1.5288773608       -2.5181656170
 H         -2.7588801696       -1.5367480164       -2.3362176599
 H         -1.3658886974       -0.9631430422       -1.8202075367
 O         -1.1829227899       -3.9224342433       -1.4068993734
 H         -1.3288891218       -3.1506044139       -1.9866694447
 H         -1.7010907110       -3.7210854226       -0.6105778718
 O         -0.9659222004        3.7228270967       -1.6252114966
 H         -1.5895338620        2.9734163322       -1.7262707068
 H         -1.4858315947        4.4467376830       -1.2696832602
 O         -0.2104877412       -2.5625743131        1.8580368477
 H         -0.9740775593       -2.9167971236        1.3923997635
 H          0.2167680101       -3.3084431798        2.3244625835
