  249
       -422.61843878
 O         -1.4896839495        2.2020373843       -3.5903496594
 H         -0.7173163178        2.3103276816       -2.9884552925
 H         -2.1713904217        2.7688769615       -3.2034667803
 O          0.6056847207        2.9193439086       -2.1413629633
 H          1.3701134157        2.7847091844       -2.7394662970
 H          0.4331575529        3.8790692095       -2.1524289375
 O         -2.8785269208       -4.8830569514       -2.4797100394
 H         -2.7724489396       -5.6405904770       -1.8985740184
 H         -2.0753504873       -4.3609131816       -2.3822852882
 O          5.2192641229        4.2286558474        0.7121669213
 H          5.5363816327        3.3128771561        0.8389693125
 H          4.2639401033        4.1220153749        0.5064339671
 O          2.8891434042        5.0716778103       -2.3904015671
 H          2.8264072169        4.3733878751       -3.0696963553
 H          2.0568594898        5.5586615091       -2.4290507008
 O          0.6451751111       -0.3331041646       -5.2284887600
 H         -0.2975402797       -0.5100829472       -5.0935735248
 H          1.0698375507       -1.1915079319       -5.4534293070
 O          6.6881047388       -2.0176766062        0.5016538406
 H          7.5049385145       -1.8023839189       -0.0013468735
 H          6.8658566396       -1.7705016859        1.4465332389
 O         -3.3316581454       -4.2531876910        3.1603278409
 H         -3.6710662975       -4.4505834639        2.2541539606
 H         -2.3891853992       -4.4831876076        3.0986597927
 O          3.1110814969       -1.8574801688       -2.0739817772
 H          3.8562230373       -1.4221451646       -1.6039733131
 H          2.5118731400       -1.1183677439       -2.3294480574
 O         -2.8452342140       -1.6759135929        3.4029022569
 H         -3.0903856112       -2.6295177595        3.2986931395
 H         -3.3090213873       -1.3639205724        4.2038424245
 O          1.7675419081        1.9341467621        2.2651156476
 H          1.1896883307        2.3123384398        1.5741506891
 H          1.1602543385        1.5652508938        2.9374211148
 O         -0.3408776972       -1.5102799071        4.5126949044
 H          0.2528452435       -2.1950001425        4.1921622660
 H         -1.2052500322       -1.6498675936        4.0859385967
 O          5.8885078699        1.6225090533        0.9947736037
 H          6.2397331310        1.5052404914        1.8946625337
 H          6.5943043715        1.4242983394        0.3530535032
 O         -5.0263754006        2.9844449770        0.7716952213
 H         -4.1026331774        2.6532181965        0.6750532512
 H         -5.3718142928        2.9632000336       -0.1538387132
 O         -2.4175323659        1.8027793150        2.9463082745
 H         -2.7084094521        1.3293802727        2.1468269825
 H         -2.3092252179        2.7462654947        2.7142078472
 O          4.4499365138        5.1111239931        3.1984832323
 H          4.9042076409        4.9439653617        2.3520089284
 H          3.5621867858        5.4234541236        2.9555153192
 O         -6.5899110646       -4.2086063541        0.1237940250
 H         -6.2700635178       -4.0020582027       -0.7797517918
 H         -5.9812812148       -4.8850047621        0.4407248141
 O         -4.7007260242        1.4116549736        4.3722438123
 H         -3.8433789288        1.6113635996        3.9419012001
 H         -5.3398769324        1.2940657793        3.6551339891
 O          2.4604739246        2.9531586101       -4.0488774572
 H          3.1243447378        2.2755694340       -4.2604373654
 H          1.7571654617        2.8612178747       -4.7338518832
 O         -4.7287241022       -0.0389526149       -4.2636452736
 H         -5.1515757463        0.6612777439       -4.7608251315
 H         -5.4591691395       -0.5821214340       -3.8698473758
 O          6.1373862382        1.3276851234        3.6492872402
 H          5.2494718246        1.7502481408        3.7676917870
 H          6.6936586202        1.6793704708        4.3435856370
 O         -5.9844843735       -0.5683511343       -0.4698261987
 H         -5.8280895215       -1.1790976393        0.2796745833
 H         -6.7141195556       -0.0002486404       -0.2074249321
 O         -5.5414003398       -2.1933468996        1.6012991609
 H         -5.8840691826       -2.9818495732        1.1424250536
 H         -5.5635176748       -2.4061365934        2.5478080002
 O         -3.6927988239       -0.0944892643        1.3909930607
 H         -3.4368934878       -0.6746034421        2.1362809172
 H         -4.6198472443        0.1313804248        1.5602390853
 O          1.9438103415       -2.6422631070       -5.5205581294
 H          2.8559058213       -2.3230220429       -5.4030196943
 H          1.8106216810       -3.3035848005       -4.8293251240
 O          0.4146651273        2.3881444165       -5.6365502095
 H          0.5693791475        1.4349392758       -5.7325851396
 H         -0.3679707108        2.4592969554       -5.0677884559
 O         -0.2775620347        5.3486013170        0.6500919350
 H         -0.1635144585        4.3626969129        0.5309129539
 H          0.4921842463        5.5894284049        1.2136264878
 O          3.5079676267        1.5065553945       -1.2779945240
 H          2.8965477511        1.1543673348       -1.9495725305
 H          4.0586701743        0.7622932746       -0.9823933768
 O         -8.5494879384       -2.1292540565        0.9108655149
 H         -8.3311797853       -2.0176622075        1.8590628025
 H         -8.0030353590       -2.8548156775        0.5827933762
 O          1.7344209946        0.2488635166       -2.8818440316
 H          1.3713086828        0.1140437365       -3.7856436413
 H          0.9756946446        0.4350742833       -2.2918603073
 O          5.2635771688       -0.5317493244       -1.2267723165
 H          5.7681806517       -0.8801030010       -0.4672464812
 H          5.7928056590       -0.7919831585       -2.0073133236
 O          5.6834455661        2.3460559943       -2.5897078796
 H          4.8936654031        2.0938118659       -2.0586561909
 H          5.7510828104        3.3281901433       -2.4618156662
 O          1.9160272454       -4.1038645192       -3.0528926436
 H          2.1407238323       -4.8839948354       -2.5213970033
 H          2.4364862402       -3.3663749799       -2.6852202313
 O          5.5429398023       -3.7941755669       -1.3335087638
 H          6.1041178090       -3.4033542022       -0.6439946100
 H          4.6850694284       -3.3619956981       -1.2491798748
 O          3.6328769772        0.2228369758        1.4852148143
 H          4.4497938718        0.7199555008        1.2898440656
 H          2.9504022281        0.8906076044        1.7044050615
 O          6.5450209822       -1.9189475879       -3.1516583104
 H          5.8963139662       -1.8392792397       -3.8762311295
 H          6.3361355442       -2.7595494331       -2.7090702892
 O          4.2602276523       -1.5111967907       -4.5392141188
 H          3.8293003783       -1.6740838293       -3.6760861169
 H          4.2593759814       -0.5453162776       -4.6551571692
 O         -6.2275615593        0.9826149965        2.0663303820
 H         -5.8561674635        1.7894748777        1.6457753113
 H         -7.0864407871        0.8408028876        1.6393922617
 O         -0.0397175782        1.1189781761        4.0986420517
 H         -0.9265178641        1.3234094139        3.7434592168
 H         -0.0711243795        0.1628712017        4.3185736961
 O         -5.5907708638       -2.9407840156        4.2577815222
 H         -5.1935559454       -2.2882125511        4.8567354663
 H         -4.9356286456       -3.6410379492        4.1369761968
 O         -3.8409207705       -4.7136805426        0.5987139266
 H         -3.0142347010       -5.1680615716        0.3534969980
 H         -3.7600437962       -3.8079548537        0.2424560637
 O         -5.2543539437       -3.5066250989       -2.1197362809
 H         -4.7462503929       -2.9206619330       -1.5211680455
 H         -4.5873698258       -4.1331993867       -2.4399844422
 O          3.9949524272       -2.3045459450        0.7221950127
 H          3.7402097883       -1.4055557112        1.0020580414
 H          4.9648769393       -2.2934711353        0.7288775063
 O         -3.0487812454        3.8679522100       -2.0148407336
 H         -4.0020634447        3.7360405469       -2.1061185539
 H         -2.9221798640        4.7402431417       -1.5754424560
 O         -7.8108193428        1.2136860158       -2.2502638804
 H         -8.1921906426        0.9805493800       -1.3913894688
 H         -7.6614827074        0.3812603969       -2.7139410955
 O         -1.3146010751       -5.6453472842       -0.0153361282
 H         -0.9393339377       -4.9897482572       -0.6266920318
 H         -1.0411803473       -5.3462895819        0.8715941356
 O          0.2765784643        3.9628073683        4.0291092197
 H         -0.6173147315        4.1959136162        3.7490858981
 H          0.2569465362        3.0220095825        4.2388839322
 O         -2.6745001258        6.0561257423       -0.5645141106
 H         -3.3638505323        6.0068685861        0.1163338136
 H         -1.8354596905        5.9527571356       -0.0892916177
 O         -1.9863065961       -0.2929656798       -4.3912265082
 H         -2.9290106501       -0.3426259529       -4.6007662317
 H         -1.8287225368        0.6353476092       -4.0997352368
 O         -3.6289720277       -2.1846119194       -0.4316579853
 H         -3.7354149175       -1.4781607245        0.2328215695
 H         -2.9819296894       -1.8629897511       -1.0899564252
 O         -4.4391545054        5.4578382768        1.4927521244
 H         -5.1768238257        5.8958360748        1.9150690402
 H         -4.7450929821        4.5517069662        1.2371650367
 O          1.6621353210       -3.3257903022        3.1220131118
 H          2.3945070155       -3.9685611400        3.0729255594
 H          2.1127350419       -2.4918209124        3.3833129511
 O          4.5252355292        1.2386575403       -4.6983508344
 H          5.0720806772        1.6108552259       -3.9642728800
 H          4.9402482407        1.5084307476       -5.5173075588
 O          2.6992447421        3.7406129731       -0.0291336092
 H          2.7031375141        4.3014545003       -0.8300007613
 H          2.8887646541        2.8431443295       -0.3579234523
 O         -2.5880213110        2.1889616146        0.0124378026
 H         -2.8011726677        1.3265489921       -0.3740487871
 H         -2.6405257108        2.8119306828       -0.7489096394
 O          5.6530093018        4.8685971336       -1.8955836395
 H          5.6382787223        4.7669168278       -0.9212554717
 H          4.7670126710        5.1757755009       -2.1324397122
 O         -0.7402881814       -4.2922742974        2.2668526717
 H          0.0610360649       -4.2615321947        2.8023512439
 H         -0.7625881052       -3.4184701166        1.8001543923
 O          0.1722411545        5.6178286500       -1.9953614091
 H         -0.6437015303        5.9795382624       -2.3444249255
 H          0.0897116820        5.6538468412       -1.0172402894
 O          7.6583420012        1.4867731049       -1.0617126049
 H          8.2891775789        2.2067523794       -1.0680419275
 H          6.9424162638        1.7375513489       -1.7023406326
 O         -1.6922046036       -1.4581063516       -2.0627406224
 H         -1.8075300856       -1.1196962199       -2.9805564764
 H         -1.1366379951       -2.2614439890       -2.0887031085
 O          2.5163889036        0.8419049316        5.4724559984
 H          1.5935096012        1.0711699012        5.3257609669
 H          3.0442909374        1.5695056087        5.1018344045
 O         -0.0157884625        2.7760148699        0.4486094818
 H         -0.9243326068        2.4170773976        0.4105103866
 H          0.3478082714        2.6255018069       -0.4464392851
 O          1.5805965393       -3.4577655036        0.3857858028
 H          2.4375362183       -3.0236784661        0.2467571351
 H          1.4474946333       -3.4091442292        1.3540718100
 O         -8.4428079407        0.4210526333        0.4167032174
 H         -8.5258706293       -0.5710936087        0.5253021954
 H         -9.2740342790        0.7815434826        0.7261813359
 O          3.8487443487        2.6354897985        3.8850926818
 H          4.1083066370        3.5832141715        3.7742469604
 H          3.1430786413        2.4835364893        3.2317597068
 O         -7.7510041098       -1.3624534613        3.3964276386
 H         -7.1363296444       -0.6483464046        3.1974474408
 H         -7.2332447426       -2.0384823253        3.8520622055
 O          5.1469630863       -2.8488083362        4.2776217997
 H          4.3885610081       -2.2374096222        4.2525078259
 H          4.8798507123       -3.6175421310        3.7527244563
 O          1.8633628589        5.1781933627        2.1941122077
 H          2.1617443747        4.5088514142        1.5555964934
 H          1.4000605427        4.7043168407        2.9151507388
 O         -0.2531944031       -3.6407885365       -1.6283227079
 H          0.4356154375       -3.8550693830       -2.3011219338
 H          0.2621103740       -3.4025981549       -0.8325267707
 O          1.9262546986       -5.8029775533       -0.8645531185
 H          1.7863024219       -4.9991121806       -0.3138914153
 H          1.1912090364       -6.3892793473       -0.6764934504
 O          8.4878514129       -1.1502636215       -1.2519910236
 H          8.3066426298       -0.1975723724       -1.1927167604
 H          8.0879600952       -1.4432568619       -2.0811932555
 O          3.9512954301       -4.5007949039        2.3679133301
 H          4.2086115938       -5.2199113177        1.7609664585
 H          3.9901442903       -3.6984567028        1.8146969415
 O          4.5197054038       -5.9814155897        0.1700812184
 H          3.6605862169       -6.1147237310       -0.2571203628
 H          5.0279091272       -5.4104615983       -0.4250275498
 O          6.9072987293       -1.3024967291        2.9951926252
 H          6.6142395435       -0.4175394817        3.2536109422
 H          6.3677810434       -1.9261654539        3.5314392366
 O         -3.8968900932        0.5657075500       -1.7240377315
 H         -4.5354298843        0.0361581809       -1.2099798250
 H         -3.9816347522        0.2812611730       -2.6481153750
 O         -5.5479321630        2.6643471818       -1.7894290818
 H         -6.4169101443        2.2919170614       -2.0272140868
 H         -4.9214885937        1.9016675046       -1.8212925687
 O         -6.6166129367       -1.3376798198       -2.9573831011
 H         -6.4130546935       -1.0929663649       -2.0279816425
 H         -6.3593369448       -2.2721916347       -2.9933688749
 O         -2.0885876701        4.4544968467        2.5315611454
 H         -2.9394233448        4.8796864420        2.3465462345
 H         -1.4613194993        4.8254125215        1.8839230417
 O         -4.2698626288       -0.8762646153        5.5350900836
 H         -4.5016976936        0.0227908321        5.1681000657
 H         -3.8579351311       -0.7262774032        6.3856824351
 O          3.0475412311       -1.1457610150        3.7747451561
 H          2.8499695867       -0.4984810324        4.4883052044
 H          3.3590329312       -0.6257172848        3.0118473568
 O         -0.1108688546        0.2844556023       -0.8923036568
 H          0.2257283223       -0.2488337762       -0.1685868971
 H         -0.7983778723       -0.2745742869       -1.3183751386
 O         -2.6401352820       -3.0655621695       -4.6078968192
 H         -2.3242167203       -3.4005325857       -5.4459175498
 H         -2.9589095882       -3.8169812609       -4.0994341359
 O         -0.4808840138       -1.6283339647        1.4430201948
 H          0.0480741348       -1.2553384891        2.1540923524
 H         -1.3669708088       -1.2633142087        1.5223491813
