  300
       -509.23724431
 O         -4.8645795557       -3.2333604926       -1.8679697677
 H         -5.4718056641       -2.5965691736       -2.2466154969
 H         -4.4688391383       -3.7436139611       -2.6075002491
 O         -1.9842782304        1.0825516682        0.0471424741
 H         -1.5905372934        1.9041314589        0.4145036226
 H         -2.7401064325        0.8504446726        0.6255063723
 O          4.4999061985        3.7266303654        0.2876477841
 H          5.2539197287        3.3655079385        0.7822753830
 H          4.1072350473        4.4018170182        0.8711603081
 O          0.7128369305       -4.1254242129       -1.2825500755
 H          0.3859084934       -3.4600694808       -0.6428676213
 H          0.7323737961       -5.0038597598       -0.8261917691
 O         -3.4552092599        2.0789886844       -1.8312900410
 H         -2.7857223270        1.7488957352       -1.1751854153
 H         -3.9459203565        2.7950472002       -1.3998206443
 O          5.5331832910        0.9699861022       -2.2300980087
 H          4.5430237969        1.0213975323       -2.1810148542
 H          5.7853505415        0.0434717887       -2.3928421148
 O         -0.8053936287       -0.0678621454       -4.2331696758
 H         -1.3231203102        0.7604377679       -4.2741873317
 H         -1.2582128277       -0.6419856712       -3.5813708322
 O         -6.2762906346        1.9272080148        3.2276390807
 H         -6.9064567654        1.1983970361        3.3947539600
 H         -5.4168062763        1.5130261377        3.4652599330
 O         -0.7157445808       -2.2275999369       -0.0862514195
 H         -0.4285388645       -1.6144660118        0.6194887510
 H         -1.6956924162       -2.2481977704       -0.0519108312
 O         -2.5683590296       -4.7235109923        0.8503627258
 H         -2.3777715769       -4.4536256424       -0.0726746060
 H         -3.5426264719       -4.6650785470        0.9363207795
 O          2.2321003817        0.9642272997        0.6510788797
 H          2.4616271521        1.0728464340       -0.2911153985
 H          2.7549937970        0.2285618548        1.0075676672
 O          6.3887520349       -2.3271699422       -0.0446647528
 H          5.8380102197       -1.5585093892        0.2150340988
 H          6.4587934896       -2.2315222691       -1.0073601327
 O         -0.8055618040        4.5609325064       -1.4018278635
 H         -0.7713504911        3.5883917938       -1.4189210930
 H         -0.3593556133        4.8648466854       -2.1977561497
 O          1.6858337299       -3.0877020203        1.1211294556
 H          2.1083357580       -3.9698260295        1.2080502708
 H          0.8065409470       -3.1925082144        1.5478652113
 O         -3.8064430114       -4.6594615651       -3.9192778785
 H         -3.9106182938       -5.5713365833       -3.6359069228
 H         -2.8338430873       -4.5584155871       -4.0657260989
 O         -0.5601552656        1.6801175234        3.4758883620
 H         -0.4838722590        2.3381099626        4.1875066128
 H          0.1485698890        1.0259523399        3.5843918989
 O          1.9005024323        0.0042345345       -4.0539073159
 H          2.0888713541        0.1025765155       -5.0056278198
 H          0.9256978379        0.0135210789       -3.9953823772
 O          2.0598644572        2.7499745544        2.6179055888
 H          2.1186326474        2.1732175960        1.8303317005
 H          2.6086552342        2.3380353957        3.2986183785
 O          2.5370244416       -5.7482109566       -4.0630808077
 H          2.8581761104       -5.2962645894       -3.2663063792
 H          1.6504533420       -6.0663679334       -3.8564002251
 O         -4.0766512173        0.5637270243        3.9673858823
 H         -4.4439726568       -0.2173046666        4.4358863675
 H         -3.6810382118        1.1605930355        4.6174717848
 O         -2.3897108825       -1.7435294762       -2.8408190089
 H         -3.1219017058       -1.2384824740       -2.4384333626
 H         -2.7382426908       -2.0408951616       -3.7040418446
 O          0.6214567583       -2.6525655229       -3.5532650778
 H          0.5247289029       -1.8219894971       -3.0477076576
 H          0.8180553143       -3.3258215758       -2.8860966605
 O         -1.2277586782       -4.3968364542       -4.5137489968
 H         -0.6792455307       -3.6411399513       -4.2367988468
 H         -0.7753658890       -5.1765986924       -4.1652401649
 O         -4.5866874961       -0.2433888635       -2.3491026028
 H         -4.2215083607        0.6247105390       -2.0580180506
 H         -4.7759828916       -0.1178792455       -3.2906177108
 O         -4.5374863185        4.0586053003        3.9293533372
 H         -5.3704374639        3.6023493582        3.7518854678
 H         -4.3968807346        4.6898889620        3.1888494526
 O         -1.4917253090       -1.1479604011        3.4178365047
 H         -1.5599168836       -0.6175192430        4.2265928144
 H         -1.0107516087       -0.6148188592        2.7607311036
 O          3.6391860967       -0.7177377115        5.4399627840
 H          2.7926998377       -0.7580711277        4.9525742927
 H          4.2542744460       -1.2881790311        4.9634817300
 O          1.5255064158       -1.5895208376        7.1962252727
 H          2.4644129370       -1.5526512174        6.9796574326
 H          1.2236062836       -0.6708593414        7.1529518996
 O         -0.8192816218        5.8464273566        3.8754107805
 H         -0.9258993670        5.6717033281        2.8929741715
 H         -1.5635909502        6.3960547011        4.1208701806
 O         -4.8623684478        4.1842451415       -0.6647965149
 H         -4.2035176180        4.7732137013       -1.1634285030
 H         -5.7263351246        4.4859888117       -0.9464307232
 O          2.9378165276        1.3159106032       -1.9866540896
 H          2.9097057328        2.2629232082       -2.2357871518
 H          2.4791100309        0.8302695069       -2.7046368598
 O         -2.6540890706       -6.7372803124       -2.1270538123
 H         -2.6713308407       -7.1634910502       -1.2683237699
 H         -2.5250141388       -5.7820492206       -1.9519456958
 O         -0.0728669665        1.9398414856       -1.7701866510
 H          0.6992509729        2.3085453444       -1.3103337262
 H          0.0975008574        2.0656639136       -2.7252377538
 O          0.5536976759        2.5911625918       -4.2502887146
 H         -0.0123928557        2.5488685575       -5.0473754760
 H          0.5847508618        3.5399058351       -4.0221302261
 O          1.3652862356        6.0482673189        0.2085057436
 H          1.7565195520        6.3338670932       -0.6310908062
 H          2.0594083038        6.0310055567        0.8780647825
 O         -1.8914188096       -3.8046920443        5.0019400596
 H         -2.4862370053       -3.6371767207        4.2505072264
 H         -2.2607565808       -3.2862768615        5.7328123514
 O          1.8448145819        5.7074519461        4.5507358070
 H          0.9129233867        5.8691071088        4.3280315413
 H          2.3139202709        5.6603699025        3.6974424675
 O         -0.4207535231        2.9271769016        1.1146318152
 H         -0.2972064497        2.5175742339        1.9941225875
 H          0.4458186318        2.9937595913        0.6837372286
 O         -6.1482105803       -1.8124492883        1.4752198443
 H         -6.5535405473       -1.4507820541        0.6603881652
 H         -5.3459338048       -1.2745946646        1.5973289575
 O          2.8178396960       -1.5096967375       -0.8637290373
 H          2.4580598199       -2.1441608680       -0.2275971284
 H          2.0289353374       -1.0731202458       -1.2532999831
 O         -1.2244783043       -6.9828042892        1.3202491555
 H         -1.8078379421       -6.2123474138        1.1517316374
 H         -0.8999865962       -6.8465565764        2.2243769382
 O          2.1643943027       -4.8538448732        4.0499348531
 H          1.4023815535       -5.4584581941        4.0666575472
 H          1.7692929255       -3.9905908891        4.2659857447
 O          0.4815299478       -0.6541356077       -1.7783243282
 H          0.1693814284        0.2721449081       -1.7085521411
 H         -0.0975459066       -1.2012795517       -1.2026914311
 O         -5.2238199647       -4.3144849682        0.7248129918
 H         -5.6330215239       -3.5352882703        1.1428598909
 H         -5.2517962614       -4.1336597911       -0.2248433801
 O          1.3218835561       -0.2969009797        4.0134363262
 H          1.8704331048       -0.4925046542        3.2185153048
 H          0.8586227254       -1.1435323766        4.2142269289
 O         -4.1305154618        0.0920350903        1.3296465294
 H         -4.7766243706        0.7616731727        1.0067821687
 H         -3.9463743056        0.3287061115        2.2587145040
 O          0.4287127104        5.2782626287       -3.9241042915
 H          0.7571873336        5.2849508326       -4.8556912264
 H          1.0736996938        5.7857016360       -3.4054450133
 O         -5.9184540534        1.9035854389        0.6164947074
 H         -5.4768887971        2.7112744393        0.3271741712
 H         -6.1612581688        2.0296250938        1.5668137669
 O          5.4811734657        0.6656006565        2.5976140808
 H          4.7705555833        1.0415894624        3.1335494247
 H          5.0880809689        0.3738108834        1.7428082185
 O          1.3307770788        4.7640004816       -6.3621376764
 H          2.0776984692        4.1633730625       -6.2268778968
 H          0.5976895094        4.1991525540       -6.6557467028
 O         -2.9880561780        2.4349260354        2.2175729775
 H         -2.2357391187        2.1020919242        2.7191419895
 H         -3.4694630244        3.0234373623        2.8109572058
 O         -1.9702268414       -4.1777670868       -1.7042583884
 H         -2.1761233355       -3.2923707619       -2.0632148748
 H         -0.9995421172       -4.2468098370       -1.7283860616
 O         -3.0452590405        2.5236059991        5.6420750974
 H         -2.1904254821        2.9827776340        5.6380088279
 H         -3.6494754755        3.1264828616        5.1729974794
 O          3.1834918699        5.0907652990        2.2388696694
 H          3.9674103123        4.9338935955        2.8070480368
 H          2.6577302411        4.2497182663        2.3196328561
 O         -2.5450089948        1.9785039029       -4.3142175483
 H         -3.2658365193        1.4704327951       -4.7154392310
 H         -2.8022287391        2.0740540499       -3.3701398113
 O          6.6820932421        2.8371767712        1.7032367130
 H          6.3718900565        1.9669398330        2.0503575584
 H          7.5303622369        2.6964261898        1.2845206821
 O          2.2317305804        3.6045103003        6.0251383411
 H          2.1374746516        4.3910421182        5.4053408946
 H          2.6600732346        3.9531481996        6.8073721001
 O         -3.1832183199        5.5988975789       -1.9647724492
 H         -2.3208299274        5.3284567758       -1.5809643368
 H         -3.0932643237        5.3834234997       -2.9137906071
 O          5.0433909217       -4.5683927604        0.1873230911
 H          5.6516893978       -5.2438707322       -0.1119718625
 H          5.5428079089       -3.7103875149        0.1587595063
 O          3.7780316728        1.8293878962        4.5894849761
 H          3.2855154607        2.4149172000        5.1932863102
 H          3.8086332231        0.9482240285        5.0238934743
 O          3.5440483371       -3.8549057128       -5.7403602790
 H          3.7265522557       -3.2404712077       -5.0102330007
 H          3.2266018617       -4.6678499236       -5.3048175402
 O         -2.8820402026       -1.9820455835        6.8215262466
 H         -2.7639182477       -2.0107107251        7.7701436231
 H         -2.3878226284       -1.1969324644        6.4954840278
 O         -0.5650156648        3.6315816183        5.3404374818
 H         -0.6983572453        4.4364527063        4.7938978076
 H          0.3028269082        3.7168522264        5.7493847108
 O         -0.6364570154       -3.5658264205        2.3194843613
 H         -0.9355353121       -2.7790324839        2.8021980340
 H         -1.3871052967       -3.8796043637        1.7704600710
 O         -0.3723719968       -5.8372616568        3.7224873229
 H         -0.9641630476       -5.6679485661        4.4609953638
 H         -0.4154933382       -5.0068126842        3.1956349377
 O          1.7765336633        3.4376675212       -0.4200632186
 H          2.7311716166        3.4151886437       -0.2778596037
 H          1.4912506663        4.3663121244       -0.3317244862
 O          3.0045719244       -1.1286850257        2.2003827405
 H          2.4916600532       -1.8804842156        1.8106580924
 H          3.7778245837       -1.5248962038        2.6314606952
 O         -1.6044995293        0.1728653412        5.8843892865
 H         -2.1663449695        0.9626785312        5.8819841099
 H         -0.7216037650        0.4745629504        6.1586175558
 O          0.9634134787        1.0205756906        6.3353012236
 H          1.3249928199        1.9130500935        6.3547426921
 H          1.1910502274        0.6500555649        5.4615214729
 O         -0.0315083848       -6.4957677081       -2.9547116548
 H          0.4066589863       -6.6378399914       -2.1048347167
 H         -0.9481253056       -6.7915063657       -2.8115778338
 O         -3.9478627937        5.4333793269        1.7135446343
 H         -2.9914299537        5.4922079400        1.5536570858
 H         -4.2970567377        4.9600590013        0.9439402654
 O          6.0774552793       -1.6455662331       -2.7373059363
 H          5.1443687961       -1.8355783387       -3.0164261751
 H          6.6373324096       -1.9235301972       -3.4616397372
 O         -6.7856536098       -0.4035657667       -0.7249983662
 H         -6.7485272252        0.4589062065       -0.2883408962
 H         -6.0098620838       -0.4167151195       -1.3131168115
 O         -4.5492856239        0.1812271538       -5.0909290050
 H         -5.2090045368        0.2933829478       -5.7741704924
 H         -4.1396019461       -0.6985332669       -5.2362273830
 O         -7.2790110830       -0.5445110588        3.6458924980
 H         -6.7349110104       -0.9318906600        4.3412859080
 H         -7.0528304250       -1.0571271180        2.8475683756
 O         -3.3263784060       -2.1678741918        0.1496148613
 H         -3.8801234661       -2.4827510640       -0.5826542094
 H         -3.6176870517       -1.2776891859        0.3930601558
 O          2.4881790652        6.2015216297       -2.3256629867
 H          2.7936809900        5.2718794882       -2.4996913701
 H          3.1715961316        6.7775033134       -2.6669388443
 O         -0.7111173200        2.8684214829       -6.5740596826
 H         -1.6589735140        3.0028796814       -6.5549863889
 H         -0.5336763347        2.0615362691       -7.1258485103
 O          5.3181644966       -1.8851603729        3.4505986419
 H          5.8649285002       -2.5236516907        2.9912679644
 H          5.6496567569       -0.9960317378        3.2124283845
 O          1.3048024526       -2.5530530829       -6.1645691228
 H          2.0965615011       -3.1377683790       -6.2235122360
 H          1.0845867087       -2.5593419108       -5.2116444256
 O         -1.1800547967       -1.4556134188       -6.4635726401
 H         -0.4342743275       -2.0686711438       -6.5481878852
 H         -0.9863333812       -0.9288697294       -5.6486588560
 O         -0.1533861138        0.6632642011       -7.8623477009
 H         -0.6646401457       -0.0919881893       -7.5163239348
 H          0.7620337175        0.4894438624       -7.5867087027
 O          3.6342043872       -2.0580711099       -3.6036759945
 H          2.8826941767       -1.4308258780       -3.5966911680
 H          3.4183469863       -2.7513661160       -2.9397217547
 O          2.9953616304        2.7041764723       -5.3666363015
 H          2.1282440228        2.3844046070       -5.0405761945
 H          3.5869331421        1.9338566335       -5.3956373050
 O          4.8108232949       -0.1854274000        0.1881033978
 H          4.0467579024       -0.6759492333       -0.2244186313
 H          5.1637067166        0.3932639429       -0.5052002211
 O         -0.0776544171       -0.1617309130        1.3722287045
 H         -0.7673865348        0.2950340882        0.8413812411
 H          0.7613053487        0.2639960266        1.1165119524
 O          4.6954280237        0.5409240580       -4.9538456884
 H          5.1702884851        0.8785083607       -4.1819962504
 H          4.3154949097       -0.3044612472       -4.6917991156
 O          3.2950943284       -4.1315988957       -1.9334588003
 H          3.8718139533       -4.2810890436       -1.1674435045
 H          2.3794749281       -4.0826199845       -1.5873914504
 O          2.2207645410       -0.1684615877       -6.7122199811
 H          3.1072856590       -0.2288716954       -7.0673611879
 H          1.8846433595       -1.1003268912       -6.5899501101
 O         -1.1879336192        5.4137747940        1.3538908568
 H         -1.0258077733        4.4447273397        1.2250185848
 H         -0.5477752576        5.8336868647        0.7652351276
 O         -3.4253979840       -2.2322892111       -5.3011123309
 H         -2.6161592554       -2.1306638949       -5.8538405171
 H         -3.6561672830       -3.1664517607       -5.2647024533
 O         -5.0088129270       -1.6953062550        5.0133982182
 H         -4.4256738783       -1.9000184865        5.7573449976
 H         -4.6765099960       -2.2266097723        4.2616565669
 O          2.7856891790       -5.4502549424        1.5305692473
 H          3.6958850530       -5.2607150800        1.2682823235
 H          2.6998512246       -5.3136989133        2.5021646041
 O          0.8653802943       -6.4845517486       -0.2006267979
 H          0.0794528793       -6.7449883640        0.3452779537
 H          1.5896740619       -6.3512515601        0.4281388612
 O          3.3234899268        3.7965632900       -2.9753684355
 H          4.2855462563        3.8327304027       -2.7649702892
 H          3.2552057800        3.5309882461       -3.9204837993
 O         -3.5523797970       -2.7545052954        3.0064155860
 H         -2.9135143015       -2.0158428139        3.0670028606
 H         -3.6924056538       -2.9038708995        2.0622972902
 O         -2.3698044022        4.7582927971       -4.4230328699
 H         -2.3671599486        3.7873408650       -4.4402345929
 H         -1.4480515747        5.0354810626       -4.3439245676
 O          5.2183531348        4.1227930727        3.6958049912
 H          4.8572752075        3.3108369745        4.0782930367
 H          5.9075281918        3.8455340685        3.0771997273
 O          5.8108563990        3.7219148901       -2.1044805274
 H          5.9657175256        2.7702124923       -2.1915854078
 H          5.4442485123        3.8410888497       -1.2101747103
 O          0.6117485535       -2.6904752437        4.8756863316
 H         -0.2805898884       -3.0945961743        4.8904474278
 H          0.8402219289       -2.4773403331        5.7995217154
