  249
       -422.56582396
 O         -1.2378211344        0.4917451042       -3.5320382434
 H         -1.2646732779        1.3322784461       -4.0221856807
 H         -1.9066654291       -0.0972476306       -3.9441309179
 O          6.3557244669        3.2512547661       -1.0002701630
 H          5.8750098898        3.4435702093       -1.8238058538
 H          5.8399633654        3.6795981615       -0.3008680865
 O          1.7607337161       -3.4442659797        2.6145291205
 H          0.9664483014       -3.7023855456        3.1391492762
 H          2.1808067306       -4.2940431896        2.3970812391
 O          1.9698593866       -1.6484309421       -1.4609147963
 H          2.8942450610       -1.5850627651       -1.1540089304
 H          1.8724012723       -1.0900288752       -2.2585705181
 O         -6.5736878396        4.2688182543        1.9256987106
 H         -6.3305262193        4.5618859284        1.0384617453
 H         -5.7462789348        4.2932014001        2.4447397264
 O         -2.6362000069        1.7118126179        4.0861704013
 H         -2.1131922756        1.4283597941        3.3082811983
 H         -2.2055552015        1.2969803698        4.8492598818
 O          4.8988294614       -0.0081771441        4.0621515236
 H          5.0706142221       -0.7581643425        4.6341270264
 H          4.3430604671       -0.3390322410        3.3396442614
 O          1.4102373633        2.2733644020       -4.1347513227
 H          0.7011424548        2.3662854831       -4.7837385284
 H          1.4473919210        1.3193587856       -3.8828693254
 O          6.2679006523        0.6435511919       -0.9215482039
 H          6.2954364354        1.6328815036       -1.0180483881
 H          6.7627183990        0.2755051963       -1.6655040653
 O         -0.0477613053       -1.7100988215        4.5496116265
 H          0.0961177167       -2.5470859183        4.9946825126
 H         -0.4971971879       -1.9380385710        3.6980599771
 O         -0.3329108320        3.7714416588        1.8011603731
 H          0.6023911512        3.6026710162        2.0463360641
 H         -0.7774869525        4.0737350395        2.6418509810
 O          2.2253207233        4.4627592089       -0.5011840293
 H          3.0912438308        4.4906126288       -0.0581254880
 H          1.6612069475        5.1632661736       -0.0993121797
 O          0.6569563889       -0.4904968478        0.4759355250
 H          1.1622617388       -0.9838468431       -0.2140256630
 H          1.0195351655        0.4096321811        0.4873861836
 O          7.2068080783       -1.7409457428        2.4694057221
 H          8.0398798170       -1.6564538288        2.9323178640
 H          6.8763163763       -0.8294671823        2.2944031291
 O         -0.8525586467       -6.9936142184       -0.8844832713
 H         -1.0425223521       -6.6424985374        0.0056439647
 H         -1.3212681401       -6.3855973619       -1.4882587793
 O         -5.5416399386       -3.1508977817       -0.8630973778
 H         -5.4812909181       -2.8788199964       -1.7902291559
 H         -5.5756926302       -2.3068067653       -0.3559486939
 O         -0.3825373761       -4.4972302998        3.7306625155
 H         -0.6904698295       -4.9277326815        2.9129834667
 H         -1.1967310638       -4.1336551228        4.1248927913
 O          0.7867574851       -3.7535095238        0.1930626304
 H          1.0375593302       -3.4122988806        1.0765024289
 H          0.2484333633       -3.0856825469       -0.2464917288
 O         -5.5896090654       -0.7824592621        0.3426518058
 H         -5.8024980108       -0.8364117943        1.2979730876
 H         -6.3398716892       -0.3239954347       -0.0596392890
 O         -5.0982495036        4.6590002329       -0.4633799962
 H         -4.3464527141        4.9402181624        0.0891130887
 H         -4.9032354995        5.0044959480       -1.3458883838
 O         -6.0225619680        0.6612489031       -2.9286636771
 H         -5.5800790590        1.1429246138       -2.1988189122
 H         -5.5892102118        0.9960890914       -3.7444212112
 O         -3.3455922483       -0.7746184098        2.7014016739
 H         -3.8792197803       -1.5736301406        2.5115727103
 H         -3.3725228551       -0.7128537379        3.6788887000
 O          3.4688394310        1.3307657445       -1.6217262874
 H          3.7285432202        0.5893346697       -2.2035965073
 H          3.8626390472        2.1269675999       -2.0350266226
 O          4.8451062001       -5.0040813868        1.5907242619
 H          4.8679724897       -4.4179555287        2.3810515299
 H          4.1315643653       -5.6354266663        1.7474856209
 O         -2.8542931619        5.4983135227        0.9110220600
 H         -2.2850813293        5.4115733107        0.1142707689
 H         -2.6286461021        6.3298461813        1.3290140631
 O          2.2012506421        4.7096986342       -3.1884292801
 H          2.1728708809        4.6802333750       -2.2094595720
 H          2.0050265102        3.8099279068       -3.4949881339
 O         -2.9919877825       -1.1803300868       -4.5984250717
 H         -3.7665286821       -1.5172192833       -4.1073300183
 H         -2.3479336043       -1.9073147633       -4.6300353206
 O         -3.7485533562       -4.6399422347        0.3610008812
 H         -3.9452774108       -5.5609018074        0.1852194055
 H         -4.3692315954       -4.1232513270       -0.2109013431
 O         -4.8442224369        2.0343803584       -0.9503518701
 H         -4.6798583238        1.6351446194       -0.0755524915
 H         -5.0779936372        2.9698607868       -0.7668202753
 O          1.3366678561        0.2469898952        3.3881149320
 H          2.0004980828       -0.1655833652        2.8017317290
 H          0.9474711744       -0.4909308812        3.8973614379
 O         -0.9188576399        1.1171380551        2.1010915003
 H         -0.6753446455        2.0368428403        1.8964566629
 H         -0.1268289425        0.7292105795        2.5084845313
 O         -7.8007876801        0.5675030179       -0.7966739161
 H         -7.3964856127        0.6815698715       -1.6715688688
 H         -8.6900943737        0.2413359273       -0.9356080901
 O         -2.7055018750       -3.4018481480        4.5629824917
 H         -3.3597498009       -3.4761896300        3.8543135058
 H         -2.9820458129       -2.6347883709        5.0789669025
 O         -4.2856260179        1.3567796359       -4.8569394743
 H         -3.8455380586        0.5164239134       -5.0332571331
 H         -3.7301677003        1.8311103421       -4.2120194230
 O         -4.5398046434       -3.1451259983        2.4720682955
 H         -4.3211391259       -3.7422568149        1.7310190638
 H         -5.4874761855       -2.9962009476        2.4872510602
 O         -4.2754795620        1.5342709536        1.6408935096
 H         -5.2527314264        1.5012847336        1.7784711890
 H         -3.9217254675        0.7093897527        2.0326082388
 O          4.4158170946       -3.1577294960       -2.8831548537
 H          5.3647560963       -3.3203915578       -2.8003110036
 H          4.0186690131       -3.4376643015       -2.0275771883
 O         -3.6215029798       -0.9045177010        5.4086764740
 H         -4.4004778282       -0.3428759933        5.4936404534
 H         -2.8965679817       -0.4641300685        5.8760571935
 O         -0.4496671834        2.9148248008       -2.0482639283
 H          0.1172470348        2.8938794941       -2.8323710865
 H          0.1089217521        2.5550176484       -1.3188079884
 O          7.1718314031       -0.7057474064       -3.1378791344
 H          7.2259942155       -1.6447900748       -2.8730337444
 H          7.7616611538       -0.5782367468       -3.8809146991
 O          2.6189959905       -4.0061702412       -4.7368593126
 H          1.9613509569       -4.1714552850       -4.0296281543
 H          3.4146808665       -3.7369409412       -4.2476508256
 O          2.2451302373       -5.9602922752        1.5954020515
 H          2.0164817567       -5.9670192264        0.6414232272
 H          1.5418489336       -6.4370328302        2.0393408114
 O          1.2739052603        2.0072678491       -0.3092223883
 H          1.9853674273        1.6603451048       -0.8860769228
 H          1.5707689513        2.9260455180       -0.1315565807
 O         -2.2973344311        2.7894183362        0.1301494809
 H         -1.6187251327        3.2518850022        0.6446430495
 H         -2.9664918337        2.4817352841        0.7594641785
 O         -0.3644409195        5.1914370094       -4.0586588367
 H         -0.7412960494        5.5250636126       -3.2340898386
 H          0.6005239469        5.1983697782       -3.9134210285
 O         -1.4901745237        4.3493886451        4.0499069385
 H         -1.0585115885        3.7006596517        4.6252037560
 H         -2.4211514974        4.0803171218        3.9764134973
 O          4.5897724589        3.3501376763       -3.0339160549
 H          4.5794151538        2.8234926492       -3.8631889926
 H          3.9608238202        4.0784363317       -3.1686059711
 O          3.0387561321        1.9050540536        4.7515565934
 H          2.4655711762        1.1932071374        4.4113631657
 H          3.9282795478        1.5300568109        4.6894179156
 O          3.2209046903       -1.2563071226        2.1626878883
 H          3.5515429564       -1.2050638994        1.2402560837
 H          2.6299093777       -2.0322472056        2.2237842516
 O          4.3717375232       -1.2091893857       -0.2701825809
 H          4.9612313258       -0.4967902966       -0.5740404817
 H          4.9333160083       -1.9988070437       -0.1723329679
 O          4.0155144297        1.6594982954       -5.0173723044
 H          3.0863112640        1.9198789980       -4.9416503974
 H          4.0903569391        0.8016211853       -4.5697493871
 O         -6.9323145237        1.6528735958        1.7339954005
 H         -6.9666260462        2.6311208259        1.8447137014
 H         -7.3121517799        1.4624917210        0.8680479608
 O         -6.3728856221       -0.8366425652        2.9187738259
 H         -5.8691803515       -0.2232317588        3.4903300548
 H         -7.2094468277       -0.3870779618        2.7772312050
 O          1.2907466732       -0.2995649171       -3.6384676182
 H          1.4463160577       -0.8632075966       -4.4237899924
 H          0.3169872039       -0.2081506667       -3.5687816747
 O          4.4001958250       -0.5224806011       -3.3352275964
 H          5.3651640572       -0.4306992781       -3.3108918773
 H          4.2435482151       -1.4826110270       -3.2123752528
 O          6.4414180215        0.6828788963        1.6782588335
 H          6.9060871626        1.4736734038        1.9520194597
 H          6.5193175203        0.6205364031        0.6957267353
 O         -1.1390331794       -5.3214895316        1.2241261144
 H         -0.4504390801       -4.7752841844        0.7820425284
 H         -1.9933447377       -4.9352021283        0.9858043352
 O         -1.0502488015       -1.9290062983        2.0798556349
 H         -1.8493617019       -1.4040998040        2.3091605987
 H         -0.4270237432       -1.3247261498        1.6449162982
 O         -0.8207555390       -2.8078156373       -4.2567628478
 H         -0.2408897923       -3.2297571230       -3.5968159266
 H         -0.2164076025       -2.5314674009       -4.9589274005
 O          7.1339840312       -3.2773432216       -2.2499038586
 H          7.7791209081       -3.9805550233       -2.3255940961
 H          6.8885485096       -3.2131440493       -1.2977821057
 O          1.6025447849       -6.1805537155       -1.0660085189
 H          0.6735964109       -6.5527249437       -1.0151786242
 H          2.1252860168       -6.8173481196       -1.5527893954
 O         -4.0407202296        3.9581546217        2.9124649447
 H         -4.0034737924        3.0335514643        2.6050504384
 H         -3.5780698214        4.4885699211        2.2475250917
 O         -5.2142705165        1.1318308087        4.4354219874
 H         -4.2899750661        1.4289679680        4.2599318573
 H         -5.7632835887        1.9152031913        4.3897148127
 O          6.3057449336       -3.0918574581        0.2640219882
 H          5.8922201256       -3.8874278919        0.6374261883
 H          6.7486773851       -2.6452855143        1.0056791859
 O          3.4560757492       -3.8479357679       -0.5049667086
 H          2.5032093436       -3.9345553284       -0.3361702355
 H          3.9111896646       -4.3658609950        0.1744430841
 O          1.4221513957       -1.9337424801       -5.7402575665
 H          1.7303285450       -1.7532229812       -6.6272855026
 H          1.9241961094       -2.7413108409       -5.4237094112
 O          0.3726674286        6.0553523759        0.4939945606
 H          0.0261481998        5.3265438791        1.0462946948
 H         -0.2147951018        6.1154671839       -0.2681780607
 O         -3.0347487393        2.6286931424       -2.7982017889
 H         -3.5829844698        2.3762857361       -2.0251892660
 H         -2.1131926160        2.6917343924       -2.4839550121
 O         -1.2372367167        0.2889293359        6.0012796028
 H         -0.6146615307        1.0320101194        5.9982495119
 H         -0.7878338325       -0.4513959329        5.5521837728
 O          3.8469899410        1.4700238968        1.0777805138
 H          3.8013189134        1.2806332179        0.1201508565
 H          4.6528297890        1.0541295420        1.4215235506
 O          4.9813546040       -3.0572748914        3.4241669374
 H          4.3116290926       -2.4570575585        3.0582385177
 H          5.8390109812       -2.6600010344        3.2057302791
 O         -1.5194134007        5.3312379777       -1.4323307113
 H         -1.1632120671        4.4234812674       -1.5458893929
 H         -2.3601683593        5.3623907830       -1.9275232570
 O          4.5183025446        4.0539191498        0.9259569686
 H          4.3584640428        4.4872801600        1.7656238694
 H          4.2569253734        3.1088464183        1.0466413508
 O         -5.2954075697       -1.8476448040       -3.3088527781
 H         -5.9016726509       -2.1782275560       -3.9730704519
 H         -5.5999213677       -0.9280274071       -3.0900603577
 O          2.1590341524        3.1263604968        2.4907349872
 H          2.4861473724        2.9132530392        3.3824964822
 H          2.5180720663        2.4280232240        1.9237172600
 O         -3.8056701901        5.1345667064       -2.8769252457
 H         -3.9322274975        5.5028782852       -3.7503757833
 H         -3.5836858918        4.1731120866       -2.9860522811
 O         -1.1221933276        2.8156994452       -5.0328203890
 H         -0.9269062048        3.7222424561       -4.6933675329
 H         -1.7959321655        2.9115034594       -5.7058542302
 O         -1.9641656696       -4.8820400895       -2.1778585029
 H         -1.7218577511       -4.1641100885       -1.5746736469
 H         -1.7207429966       -4.5889196651       -3.0583502152
 O          1.0064186334       -3.9512110903       -2.5980704545
 H          1.4016516124       -3.1847553226       -2.1396399738
 H          1.1602572046       -4.7157803208       -2.0140117032
 O          0.2669163196        2.3963224758        5.0974299270
 H          0.5106115331        1.9171525365        4.2942215578
 H          1.0941449454        2.7099093597        5.4726905607
 O         -1.1765331705       -2.4096992242       -1.1972993570
 H         -1.0669698261       -2.0463337859       -2.0793590987
 H         -1.5479895545       -1.6488292052       -0.6885245811
 O         -2.0812040279       -0.0553866576       -0.3635065050
 H         -1.7109431820        0.2963367004        0.4567991431
 H         -1.8589846064        0.5877688900       -1.0415199307
 O         -4.7215936077       -4.5516985477       -3.7153424324
 H         -3.8981525009       -4.5000881790       -3.2166054415
 H         -5.4213447346       -4.4329117183       -3.0704539288
