  99
       -167.94157640
 O          1.1732725339        3.2147172530       -3.0201901614
 H          1.5525056373        3.3023299652       -2.1328630276
 H          0.3922782217        2.6425036260       -2.9212947079
 O         -0.5200912940       -2.2869093298       -2.0499692733
 H         -0.5211419466       -2.1399690378       -1.0890940872
 H          0.4313032729       -2.3478248036       -2.2923786869
 O          2.1616045912       -1.2773804196        0.4514891036
 H          1.8236581477       -1.9961149522        1.0415045113
 H          2.8326797456       -1.7204083231       -0.0938311238
 O          2.7683577187        0.3016933288        2.4718561499
 H          2.5346588080       -0.2018215511        1.6479458683
 H          3.3139667080       -0.3433745501        2.9599062509
 O          2.0561985014       -2.0462694556       -2.7319249718
 H          1.9647052866       -1.8507439964       -3.6904630878
 H          2.3223351047       -1.1775103931       -2.3531550569
 O          5.1946654713        0.7024899663       -0.4095545894
 H          6.0138425047        1.0438881918       -0.7702867454
 H          4.8462450991        1.3721245309        0.2117017151
 O         -6.2403027197       -0.4183814252        0.4759655174
 H         -5.5822927424        0.0642998585       -0.0730722054
 H         -7.0707930026       -0.3965666200       -0.0020063270
 O          5.2859771398       -1.7572197710        0.9135677846
 H          4.9200485371       -2.3726522625        0.2622093293
 H          5.2982253906       -0.8926448776        0.4719121441
 O          4.0704270477       -1.9072077034        3.2517124353
 H          4.5508356527       -1.9058993381        2.3825321991
 H          4.6851637402       -2.2639847873        3.8929820181
 O         -0.8737862602        1.4232686514       -2.6230530363
 H         -1.7156762385        1.8941566363       -2.5047238142
 H         -1.0181045787        0.7265746170       -3.2912728482
 O          0.5686337533        0.6521774437        3.9532258480
 H          0.8153437377        0.7813636754        4.8699444677
 H          1.4076645576        0.5735388322        3.4392216617
 O          1.9660873621        3.0460289971       -0.3255493625
 H          2.7680092711        2.9666774421        0.2131944106
 H          1.3128147484        3.5495126232        0.2120047550
 O          1.7001552376       -3.0970672382        2.2850078730
 H          2.4784584667       -2.8423912856        2.8048532176
 H          0.9189173436       -2.8671079355        2.8068436868
 O         -3.2398816724       -1.4223106397        2.9620187002
 H         -3.5602660384       -1.9361927039        2.2052533711
 H         -3.9101511100       -0.7474378372        3.1318590445
 O          0.0290394912        4.1399678645        1.1241228064
 H         -0.2812598153        3.7162006282        1.9479430363
 H         -0.7742220916        4.3372835275        0.6258483008
 O         -0.5378483533       -1.7919726360        3.2802183894
 H         -0.2325471812       -0.9278874795        3.6045988756
 H         -1.5061702161       -1.7811512108        3.3544512054
 O         -3.4295756810        1.8851905215        1.4714361045
 H         -3.6571259641        1.4072077562        0.6507373232
 H         -4.0835677081        1.5867540858        2.1220218617
 O         -4.2291987322        0.6973028510       -0.8817727056
 H         -4.0206295481        1.4134846855       -1.5002793369
 H         -3.8660077491       -0.1309178941       -1.2688873519
 O         -3.3231392014       -1.6924955023       -1.6995379328
 H         -3.6103455726       -2.1648031914       -0.9018527186
 H         -2.4359507113       -2.0224333892       -1.8948641669
 O         -1.1682265420        2.7125571942        3.1051842125
 H         -0.6454506265        1.9860670147        3.4742028727
 H         -1.9537112860        2.3207688172        2.7048787997
 O         -5.3379763679        0.5027781821        2.9052545285
 H         -5.7928095586        0.1512371366        2.1180735726
 H         -6.0001449409        0.6431893158        3.5831709089
 O         -2.6607926710        4.1155408227        0.1783573638
 H         -2.9418112488        3.3802966799        0.7650671188
 H         -3.1182215011        4.9006280242        0.4835842063
 O         -4.4989409405       -2.5560305102        0.7018897463
 H         -5.2096259316       -1.8904761908        0.6549056463
 H         -4.9135534782       -3.4157670915        0.7874642591
 O          2.8609388182        0.3519552006       -1.8852467413
 H          3.7210668575        0.4092169891       -1.4442525408
 H          2.9534075803        0.7843402578       -2.7502795396
 O          1.5395355041       -0.8637977006       -5.0532174451
 H          1.9623686847       -0.0020345058       -4.9127385825
 H          0.5890198565       -0.7251654596       -4.9372175534
 O          3.6936690336       -3.1204122936       -0.9172186683
 H          3.2130164253       -2.8973568830       -1.7409306449
 H          3.3791470252       -3.9835257520       -0.6433465655
 O         -1.1519654435       -0.7554284797       -4.1464300542
 H         -0.9404219282       -1.3657956341       -3.4019353724
 H         -1.8819259639       -1.1501645518       -4.6241686068
 O          2.7525041737        1.5743025501       -4.3305068448
 H          2.1518506886        2.2612935040       -3.9381455886
 H          3.3286171529        2.0276803338       -4.9458447640
 O         -3.1530347765        2.8848225863       -2.1802810651
 H         -2.9352547407        3.3972445072       -1.3715368744
 H         -3.3465044866        3.5213014042       -2.8702499353
 O          4.0330091011        2.3687537925        1.3920017551
 H          3.5579384224        1.6412932540        1.8642178869
 H          4.4284745569        2.9309414826        2.0589284853
 O         -0.9622788883       -1.6340169568        0.5254934914
 H         -0.8047942850       -1.7038093447        1.4782497517
 H         -0.6152808635       -0.7353805876        0.2985411910
 O         -0.3382888975       -4.4139114038        0.5974926129
 H          0.4490793724       -4.2266782093        1.1167980384
 H         -0.7535569111       -3.5488445004        0.4696621599
 O          0.0900890937        0.6964496807       -0.1257778643
 H          1.0363773341        0.5557851177       -0.2419209313
 H         -0.2273839374        1.0088303530       -0.9853968343
