  144
       -244.35601269
 O         -3.3910372955       -3.4790984200       -2.0607233023
 H         -3.7946879505       -3.6135278281       -1.1655589823
 H         -3.7183032184       -4.1924374997       -2.6096683663
 O          5.6984317287       -1.6451177417        2.4097172474
 H          5.0359949589       -2.2510509249        2.0380362508
 H          5.2071582076       -0.9339538011        2.8452501165
 O          0.2308360675       -0.7885567317        3.5866388473
 H          1.0420139722       -1.3452034096        3.6135845395
 H         -0.5020785352       -1.3219883990        3.9222600365
 O         -1.1004940281        4.4267081110       -1.7350470184
 H         -1.8988528198        4.2856950608       -1.1623797083
 H         -1.1865395444        5.2999734041       -2.1167530266
 O          2.5939917970       -2.0073330876        3.6190572270
 H          2.8355830733       -2.4533145548        2.7922997765
 H          3.1325977387       -1.2011542867        3.6560097694
 O          3.6882379257       -3.2710586272        1.3114201970
 H          3.3506991377       -3.0669479297        0.4136647379
 H          3.6074535228       -4.2171968047        1.4291731505
 O          2.7682842175       -2.6061639105       -1.1759875150
 H          3.5512943100       -2.1272247564       -1.4822118014
 H          2.4226948009       -3.1185537316       -1.9551969277
 O          0.6946182353        1.7395837819       -1.8371435871
 H          1.2217426831        1.7324827743       -1.0135753713
 H          0.7771520058        2.6467796569       -2.1604956382
 O          1.9523965153        4.2107885018       -2.2674379177
 H          2.8458017378        3.9859005686       -1.9653364057
 H          1.5896769611        4.8078374279       -1.6094589250
 O         -4.0813508115        1.5468617717       -3.5286661737
 H         -4.5932129782        1.6797815354       -4.3271774718
 H         -3.9069889564        0.5763510259       -3.4831646830
 O         -0.8560679839        2.9368115135        2.7133819134
 H         -0.4136059296        3.3331986704        1.9278386404
 H         -1.6495547379        3.4729361179        2.8464086478
 O         -2.1470567633        0.6025565074        2.6956177844
 H         -1.5598857863        1.3950265405        2.6824568131
 H         -1.9751355617        0.1237365958        3.5112378699
 O          3.9031385502        0.4441504492        3.0225598634
 H          3.5412232274        0.1637548878        2.1513939456
 H          3.2212252669        1.0248402402        3.3958821612
 O         -3.0768524773        3.7811251396       -0.1452044877
 H         -2.6578280275        2.8574311170       -0.1772941260
 H         -3.1367372915        4.0102593696        0.7944386366
 O          1.6239382752       -3.7959960524       -3.1945784505
 H          1.5850288127       -3.0692724948       -3.8570413185
 H          0.7157356419       -3.8565590834       -2.8573857292
 O         -3.4154927963        4.1005553027        2.6217878449
 H         -3.9280973524        4.8265441884        2.9766017176
 H         -3.9396401669        3.2868617955        2.7740138379
 O         -4.9058944996       -0.8194956470        3.8753361643
 H         -4.0088595755       -1.1428892722        4.0391983924
 H         -5.1659472343       -1.1808336728        3.0105909267
 O         -2.3554808180       -3.4763457359        2.1855756090
 H         -2.1085127796       -2.7439716277        1.5780609949
 H         -1.5313942713       -3.9933359048        2.3295491169
 O          0.3295054114        0.5215767023        1.1743863694
 H          0.2805841734       -0.0087715446        1.9893633806
 H          0.9156146504        1.2554681649        1.3774573679
 O         -6.1075576660        0.9552147563        0.6952545996
 H         -5.6758966326        1.3755845172        1.4581438923
 H         -5.9273208936        1.5403690631       -0.0674520739
 O          1.2670762526       -1.6093084363       -4.7007650928
 H          1.8242728702       -0.8495231313       -4.4653528242
 H          0.3702621834       -1.3030876425       -4.4892841714
 O          4.8146795357       -0.8448847250       -1.2575514113
 H          4.7909563554       -0.0932433560       -1.8777949605
 H          5.6348725145       -0.7444053618       -0.7457948613
 O         -0.8241641893       -0.2533242035       -3.4953593660
 H         -0.9000051150        0.7098700491       -3.6095493674
 H         -0.3135621350       -0.3856775262       -2.6739475280
 O          1.0023492313       -2.2863156275        1.1894050633
 H          1.1235948602       -3.0572615321        0.6112652767
 H          0.1365187210       -1.9090058985        0.9749375221
 O          2.2384899228        0.8035506370       -3.7726337660
 H          1.9414541334        1.5209274221       -4.3726517527
 H          1.6587433847        0.9399109446       -2.9836275722
 O          1.5130731856        1.6641540209        3.6967054613
 H          0.8280292957        2.3185558238        3.5138990066
 H          1.0405752007        0.8342384098        3.8655017631
 O          0.9845024218       -4.7534442993       -0.0993549480
 H          0.2562430026       -4.4052480364       -0.6590979170
 H          1.6561331030       -5.0402039066       -0.7204082569
 O         -1.4607851577        2.4530051210       -3.6697161102
 H         -1.3316898812        3.0920466095       -2.9472928387
 H         -2.4071017342        2.2253413784       -3.6591297693
 O          0.5095763821       -1.0010607292       -1.2474887795
 H          1.3910337764       -1.4148869361       -1.2226402517
 H          0.4403067980       -0.4172968988       -0.4723825155
 O          6.8903105953       -0.4027954367        0.4429558323
 H          7.8320698096       -0.5689525719        0.4591145567
 H          6.4989978004       -0.9067892788        1.2086141036
 O         -5.7845148916       -1.5823174384        1.3185000636
 H         -6.6914782445       -1.8547705094        1.4656030078
 H         -5.8506770470       -0.6553285597        0.9727382517
 O          1.1006327503        3.0110490738       -4.7639179279
 H          0.1672767048        2.8281678358       -4.5786164814
 H          1.3997516360        3.6170432867       -4.0734999063
 O         -0.6784425752       -3.4568747025       -1.7108058249
 H         -1.6435572210       -3.4544080218       -1.8437286210
 H         -0.4015608304       -2.5349759896       -1.5461626308
 O          4.6644950727        1.2470471200       -2.9909710978
 H          5.2103838060        1.2954474663       -3.7750975140
 H          3.7273001164        1.0819830377       -3.3086325938
 O         -5.3509857292        2.6918554485       -1.2640061471
 H         -4.6246034212        3.2008223022       -0.8615800516
 H         -4.9778188286        2.3078446361       -2.0705910531
 O          4.3919470258        3.2359993222       -1.1481235131
 H          4.5830851265        2.5660413943       -1.8312300766
 H          4.9475031647        2.9909931860       -0.3864132755
 O          0.0799175694       -4.5078089786        2.5588189112
 H          0.3413749938       -4.9528249247        1.7424412854
 H          0.5733473672       -3.6724063117        2.5517602107
 O         -4.4263814084       -3.8118185445        0.3623564384
 H         -3.7415577941       -3.9123216671        1.0448176459
 H         -4.9567194340       -3.0491069801        0.6512760358
 O         -2.2611845715       -1.8977034181        4.2887728846
 H         -2.3282240498       -2.4212927592        5.0874347578
 H         -2.3673291945       -2.5327347821        3.5290857480
 O          2.3585468743        2.1374956413        0.2008283252
 H          2.6684333601        1.2342302891        0.4117461677
 H          3.1114041204        2.5907634378       -0.2293196642
 O          0.3961568918        4.0005728721        0.6049111977
 H         -0.0936148656        4.0116808107       -0.2317361357
 H          1.1426488581        3.3907272359        0.4923968403
 O          5.4496983536        1.9272169458        1.0091413811
 H          4.9902933944        1.6403447259        1.8101432184
 H          6.0324998852        1.1931051457        0.7633414397
 O          2.9792191303       -0.4021379781        0.6995575407
 H          3.6124717169       -0.6848077038        0.0118674109
 H          2.3113118708       -1.1031454161        0.8393879133
 O         -4.5845240071        1.6861625973        2.9048618805
 H         -4.9846540061        1.0090709263        3.4796252331
 H         -3.6981882179        1.3015345139        2.7245593118
 O         -3.4159366746       -1.0247443681       -3.5494447785
 H         -2.4534609373       -0.8567030578       -3.6116253704
 H         -3.5165125755       -1.8222920055       -3.0125479782
 O         -1.7102795494        1.4975617243       -0.3652159667
 H         -1.0965802677        1.5764094471       -1.1114728293
 H         -1.1526410059        1.1994069495        0.3747953954
 O         -1.6764969595       -1.3301382962        0.7384934144
 H         -1.8761684526       -0.6415477496        1.4031456935
 H         -2.0718493508       -1.0275849942       -0.0827796869
 O         -7.3756002290        0.6866654189       -2.2185065040
 H         -7.1754674459        0.1259177414       -1.4659278117
 H         -7.0315089038        1.5558462393       -1.9924766168
