  75
       -127.25825681
 O          0.0473699672        0.6237023794        1.4539433988
 H          0.0427155532        0.5127602721        0.4807585716
 H          0.8478215810        1.1470345647        1.6490652593
 O         -3.5494546059        1.7199773278        0.0038745771
 H         -3.3032429650        0.7855934792        0.1321722369
 H         -3.1724904187        1.9722974490       -0.8523650970
 O         -0.5385936412       -2.3098708206        0.3048289235
 H         -0.4543500176       -2.3668985055        1.2789349210
 H          0.2736177910       -1.8357155297        0.0237512902
 O          1.8296601887       -1.1447612420       -0.0040384428
 H          2.3251171397       -1.7839258593       -0.5659566662
 H          2.1463398313       -1.2125074000        0.9158903570
 O          2.4470917010       -1.1468642518        2.6744105649
 H          2.1233630519       -0.3800224973        3.1787014963
 H          1.8126019888       -1.8389188130        2.8935944687
 O          2.1497272441        2.2845725748        2.0065789433
 H          2.0135505964        2.8292850428        1.2093543691
 H          3.0048111225        1.8184020051        1.8582514846
 O          2.9199979505       -2.6369984350       -1.8969880286
 H          3.1095098607       -1.9016773234       -2.5011476525
 H          2.1490056204       -3.0908072265       -2.2730631891
 O         -2.9000829035       -0.7899165291        3.2177795467
 H         -3.7413895273       -0.8123986187        3.6721455866
 H         -2.4257730066        0.0159432241        3.5607588915
 O         -2.1816542627        2.3030253976       -2.3680960567
 H         -2.5299245933        2.9630117203       -2.9681699453
 H         -2.2349602702        1.4345467221       -2.8625989465
 O          0.3873597313       -0.8364639416       -3.3752581587
 H          1.2986272784       -0.5583028186       -3.5568625070
 H          0.4225811251       -1.8083862413       -3.2966129575
 O         -0.7751815780        3.9388505189       -0.4392917854
 H         -1.1097221986        3.6118735921        0.4275556258
 H         -1.2677256278        3.4504419768       -1.1098305113
 O          0.5704159586       -3.5341728570       -3.1249734418
 H         -0.2389182129       -3.6999668264       -2.5645440881
 H          0.5415110894       -4.1752057357       -3.8349153153
 O         -2.7441614761       -0.8352527584        0.4700794485
 H         -1.8635730668       -1.2625986544        0.3569801550
 H         -2.9075048884       -0.8618106328        1.4307547288
 O          3.0834300904       -0.2380342119       -3.3759263741
 H          3.7924585065        0.1043640182       -3.9192800535
 H          3.0782657709        0.3008253984       -2.5440489987
 O          1.7891026293        3.4499048954       -0.4274074542
 H          2.1985453126        4.2921190228       -0.6231692874
 H          0.8051773148        3.6038438389       -0.4675576042
 O          1.2820831802        0.9801910900        4.1774992774
 H          1.6749485554        1.2559624874        5.0058629758
 H          1.5421309633        1.6394289743        3.5060023279
 O         -1.5755255799       -3.8146828030       -1.6632784980
 H         -2.2841321241       -3.2071006872       -1.9253899926
 H         -1.2099767554       -3.4237621387       -0.8462078640
 O         -1.6995639975        2.6266189316        1.7133580446
 H         -1.0824119543        1.8692863969        1.5835728207
 H         -2.5156120827        2.3725432654        1.2300810325
 O         -3.5015063944       -1.7795114310       -1.9138062187
 H         -3.3065227527       -1.4299453586       -1.0154149652
 H         -4.4528707876       -1.8682036951       -1.9724665415
 O         -0.2803644464       -1.6991609715        2.8749406898
 H         -0.1338665957       -0.8114335536        2.4839622309
 H         -1.1772870173       -1.6605134327        3.2280439560
 O         -2.2298917448        0.0053531570       -3.5974093710
 H         -1.3079625613       -0.2961302228       -3.6579654582
 H         -2.6915559132       -0.6576974921       -3.0535015564
 O          4.2568757550        0.7835643724        1.3752728258
 H          4.0196144120        0.7905773452        0.4291268724
 H          3.9804864146       -0.0680245213        1.7316737575
 O         -0.0009390488        0.7571200519       -1.1967241677
 H          0.1395183512        0.0982132057       -1.8994460425
 H         -0.6670424232        1.3672107165       -1.5255471023
 O          2.9604735567        1.0196544827       -1.0504786334
 H          2.3537262844        0.3321833896       -0.6896629617
 H          2.4810377360        1.8607106064       -0.9622925615
 O         -1.5685151601        1.3003599536        4.1185451572
 H         -0.6194822073        1.1008981905        4.1525399035
 H         -1.6773158422        1.9595878055        3.4075223300
