  129
       -218.85928136
 O         -1.4025520916        4.3451070016       -1.9158869098
 H         -2.2157285227        3.7685275036       -1.9570894235
 H         -1.6945090728        5.2211343129       -2.1741657558
 O          6.2296354157        0.8590629969       -0.7255238549
 H          6.5848521118        0.3507031030        0.0260325083
 H          5.9251942956        0.2147668562       -1.3741632266
 O         -1.2087665607       -2.6392459683        0.6708668972
 H         -1.1366230771       -3.0418406376        1.5611600817
 H         -1.5738399032       -3.3209275725        0.0914011131
 O         -2.2220462734        2.0677253658        2.2958173929
 H         -2.0338906550        2.9002210308        1.8091543392
 H         -1.5939604250        2.0714082907        3.0306664976
 O          2.4860137578        2.6287744225        3.5484964449
 H          2.6950296794        1.6712307243        3.5850172467
 H          3.3478725683        3.0572466979        3.4275535193
 O         -0.0397138004        1.7117440097        4.0673984427
 H          0.7634068309        2.2484454943        3.9620385580
 H         -0.1335006227        1.5384041321        5.0050669668
 O          1.3330211479       -2.3352416096        0.0100027676
 H          1.4120898786       -2.3079994620       -0.9594516544
 H          0.3680167534       -2.3777580401        0.2182693043
 O          0.8733234672        3.4285590635       -3.0793565541
 H          0.0421695269        3.7588990759       -2.6706974704
 H          1.2187086679        4.1561425248       -3.6011996530
 O         -2.4464643098       -0.6783597091        2.2816198624
 H         -2.5272275479       -0.8801928181        1.3274345514
 H         -2.5359012279        0.2854354205        2.3634988568
 O          5.7038414385        0.7544991978        3.4356446685
 H          5.5669095182        1.6875072376        3.2007737378
 H          4.8146488604        0.3971225810        3.6046860359
 O         -3.9941084143        0.3296747797       -2.7602400495
 H         -3.5688199314       -0.0891406892       -1.9872086773
 H         -4.9494616153        0.3085892037       -2.5217919466
 O          1.8636823589       -1.8493286850       -2.6329381448
 H          1.3496082904       -1.9327218227       -3.4494233977
 H          1.8255959212       -0.9078101244       -2.4062299787
 O          0.1705379413        1.3214433852       -4.7890918578
 H          0.4665081250        2.0355759497       -4.1977916184
 H         -0.6460483933        1.6202964934       -5.1926271168
 O          4.9153950280        3.2259278645        2.4736932056
 H          5.4885834123        3.9627899378        2.2630808856
 H          4.6205334881        2.8346323070        1.6150998434
 O         -3.5267353317        2.8487384463       -1.8837916493
 H         -3.8625839609        2.6497647740       -0.9967734347
 H         -3.6923606580        2.0326597916       -2.3953011488
 O         -1.4571496490       -2.6631129044       -3.2149769590
 H         -1.1528877495       -1.9889420792       -2.5688382206
 H         -0.9003691881       -2.5201626823       -3.9913815391
 O          2.5488263318        3.9633559083       -0.7989618562
 H          3.2008407816        3.2720261745       -0.5774700825
 H          2.0423875989        3.6548295698       -1.5622759439
 O         -2.2990601243       -4.3471312062       -1.2658951643
 H         -2.2449586737       -5.2743026552       -1.4983995573
 H         -2.0031068514       -3.8372171406       -2.0457135882
 O         -0.8058820769       -3.6672069741        3.1255252287
 H          0.0369203011       -3.2858111614        3.4460804509
 H         -1.4660137900       -3.4792252331        3.7927898761
 O          0.1875595658       -0.3481782339        2.2669565104
 H         -0.7401964387       -0.6771997834        2.2597608261
 H          0.1917941272        0.3604504262        2.9371873189
 O         -4.0390634236       -2.0907003824       -4.0064138819
 H         -4.0376974085       -1.1372355766       -3.7983425503
 H         -3.1489587044       -2.4047164415       -3.7719322122
 O          4.9288607918       -2.0806825440        0.5270025391
 H          4.5325005440       -2.7892774514        1.0567285405
 H          5.7154778207       -1.7311387328        0.9857532702
 O         -6.0048204821       -2.8215346281       -2.4229693061
 H         -5.2866310694       -2.6022486882       -3.0769800392
 H         -6.6488201202       -3.3522287500       -2.8912771642
 O          4.0871352732        2.0097819160        0.2587269397
 H          3.5928999552        1.2040228427        0.4940781634
 H          4.9260457738        1.6836781187       -0.1521730156
 O          2.5060370916        0.8065480149       -1.8880286835
 H          3.3240773682        0.2668628207       -1.7924958641
 H          2.6968193188        1.4935770934       -2.5275973532
 O         -1.4535583502        4.2547801832        0.9636779280
 H         -1.4778319574        4.3843636508        0.0061490336
 H         -0.5164750408        4.2127393865        1.2099456385
 O         -4.4678964759       -2.9710737395       -0.2218048029
 H         -3.7605087032       -3.5703337513       -0.5102599464
 H         -5.1366223083       -2.9887092883       -0.9318881108
 O          0.3765643624       -1.4371647525       -4.9303889773
 H          0.2973958794       -0.4673689746       -4.8632297668
 H          0.6505818650       -1.6252168425       -5.8289346524
 O          2.9087082261       -0.3759931099        0.8513199748
 H          3.7262191670       -0.9070658122        0.7343588493
 H          2.2022178186       -1.0039698825        0.5782047105
 O          2.9661859753       -3.6613293100        1.6330756155
 H          2.3561424922       -3.2688338284        0.9643012741
 H          2.8127856180       -4.6062415358        1.6302374379
 O         -4.2961919629        1.6097130878        0.5043471930
 H         -3.8252881065        1.8969427565        1.2975414722
 H         -5.1754337597        1.2896223328        0.7759065489
 O         -6.4102920950        0.0755944056        1.1317175226
 H         -7.2517633431        0.1778259398        1.5758298218
 H         -5.9302631721       -0.6583682980        1.5988662911
 O          1.1531328313        3.5101720911        1.3906442476
 H          1.6970465661        3.3087239156        2.1794584133
 H          1.7367253632        3.8884454711        0.6942515892
 O         -4.9830675031       -1.8331097295        2.2584630128
 H         -4.0970251320       -1.5083714651        2.4913917099
 H         -4.8590919052       -2.4525456909        1.5230766626
 O          3.0681247905        0.0027305832        3.4786332735
 H          2.9693168655       -0.1317701367        2.5072991792
 H          2.6429202361       -0.7660449498        3.8875838233
 O          1.5159042277       -2.3074445664        3.5563652704
 H          1.0690961085       -1.6522811773        2.9802219950
 H          2.1128935916       -2.8164968067        2.9811501795
 O          6.9005234939       -0.5785230516        1.5399558535
 H          6.4702520227       -0.0658380024        2.2804456727
 H          7.8016638255       -0.7438003871        1.8176771285
 O          4.4543974125       -1.0351427775       -1.9356755272
 H          4.6671619016       -1.5164512102       -1.1170413917
 H          3.8446428632       -1.6108423303       -2.4169313578
 O         -6.3683927106       -0.1588088308       -1.6849059551
 H         -6.4573939753       -0.0703919160       -0.7241510953
 H         -6.4412482491       -1.1044025306       -1.8888305225
 O         -3.1855356750       -0.6585805874       -0.3369157415
 H         -3.7049041506        0.1218652290       -0.0369499705
 H         -3.7531395594       -1.4626976660       -0.2856022184
 O         -0.8366663477       -0.4067474739       -1.7825465913
 H         -1.5891803675       -0.3582143355       -1.1799064322
 H         -0.2080128606        0.2264728695       -1.3911062575
 O          0.4414620965        1.1590622122        0.0166393068
 H          0.4546942583        0.5064773177        0.7294244370
 H          0.7455650386        1.9811743987        0.4222675138
 O          4.0915006720        2.8271073267       -3.3237458816
 H          4.7443360102        2.1251167887       -3.3479219812
 H          4.1462570808        3.2370813501       -2.4543091072
