  600
      -1018.73467321
 O         -1.6131565786       -0.9338654707        0.3426784295
 H         -0.7207088096       -0.5694770579        0.4608585219
 H         -1.4715206985       -1.8277525366       -0.0121944009
 O         -0.1471405775        2.1035256041        1.7158585944
 H         -0.4109928328        3.0002137378        1.4371526182
 H         -0.9327351752        1.6997998369        2.1110109221
 O         -2.6127646933       -0.4243012230       -2.2399791301
 H         -2.6807644404        0.5166014577       -2.4578405634
 H         -2.1681815018       -0.4839748424       -1.3799036919
 O          4.4837332645        0.6360053718        4.1394964237
 H          4.3180625597        0.6920154193        5.0976899853
 H          3.6264437683        0.8073877455        3.7093388527
 O          0.9517863692       -0.1595006925        1.0534340499
 H          1.4758391002        0.0025451275        0.2637558072
 H          0.5926469704        0.7168531659        1.3135512073
 O         -0.1968845894        0.9527454945       -1.1424644128
 H          0.5789650284        1.5095435554       -0.9953916911
 H         -0.3100304708        0.9158128928       -2.1070400040
 O          7.2407049367       -3.1059652555       -1.5494039355
 H          6.4624316476       -2.4943854541       -1.5116138309
 H          7.9753142982       -2.5117078114       -1.3115224767
 O          2.1637187350       -2.4986385463        0.1416963435
 H          1.3601906484       -2.2845492375        0.6435863893
 H          1.9503893845       -3.3584472706       -0.2736151966
 O         -4.1565668306        0.0841284279       -4.6537677180
 H         -3.8464896451       -0.8226342382       -4.4474918930
 H         -4.7056292423        0.3926337534       -3.9091844697
 O         -0.0140349528        3.2217334730       -5.9524247935
 H          0.6576694542        3.9113320305       -6.1121504221
 H         -0.5564209216        3.5463933461       -5.2006726673
 O          1.1288475797       -4.7141297416       -0.7724697501
 H          1.0205082047       -5.3384844134       -0.0318608025
 H          1.4190475443       -5.2090263239       -1.5549614599
 O          2.4834899101       -1.2020141846        2.9933434948
 H          1.8206416822       -0.8463829388        2.3709299480
 H          2.3895430070       -2.1753116648        2.9728971046
 O          3.6433938322        3.7061027451        4.1328016209
 H          4.3498123555        3.2284502101        4.5850731713
 H          4.1115493687        4.2379188052        3.4550383624
 O          2.0554950691       -3.7996312019        2.8306498901
 H          2.6233616810       -4.1793981385        2.1307283746
 H          1.1835300750       -3.6415109646        2.3990464285
 O          2.2431095358        1.6591134414        3.0486627605
 H          2.5381388725        2.4369984738        3.5542161503
 H          1.3694719320        1.3828591473        3.3999000397
 O          0.2924028226        3.8321842002       -0.7908369966
 H          0.7061023082        3.6267218919       -1.6484840151
 H          0.9069184488        3.5169082413       -0.1026980322
 O         -0.4835725087       -2.2656354640       -3.5818649771
 H         -0.2651045882       -3.2137512611       -3.7602473786
 H          0.3642944382       -1.7718738751       -3.5508721782
 O          2.7838654016        1.7716364919       -4.5965295478
 H          2.2183105964        1.3916842910       -5.2905316018
 H          3.3684008506        2.4345736121       -5.0130230846
 O          6.7160053737       -0.1228298766        1.1193296882
 H          6.5335015246        0.8184799998        1.2678272364
 H          6.9719838977       -0.4717431861        1.9888829670
 O         -3.2106095555       -2.3758266688       -4.0930622896
 H         -3.2482205970       -3.0974595640       -4.7569390815
 H         -2.2880541931       -2.1948956599       -3.8702769953
 O          0.3452632197        6.2654992126       -2.7480020495
 H          0.5047909077        6.1708011272       -1.7946573117
 H         -0.0539942213        7.1360982122       -2.8567619398
 O          5.5837998347        2.2112572563        2.0270653953
 H          4.8671532534        1.5614008429        1.8745851682
 H          5.6902234724        2.2692798672        2.9875072029
 O          3.4357609244       -8.0486477467       -1.6235929621
 H          3.3853244066       -8.0096815427       -0.6501366152
 H          4.3201635339       -7.6866678080       -1.8338221043
 O          5.4311307154       -1.2769340381       -1.1703046160
 H          4.5022390111       -1.1241848690       -1.4575881855
 H          5.3812124613       -1.4017039996       -0.2080387446
 O          3.6337690097        0.5468946913        6.6809768169
 H          4.2430464339       -0.0821489005        7.0961074322
 H          2.8725785249        0.0191874935        6.3387318339
 O         -3.4078854727        2.3248770719       -8.6740860023
 H         -3.2393981439        1.4015758128       -8.4104050358
 H         -2.5411053943        2.6529941053       -8.9552925128
 O         -1.0187254056       -3.1242452656       -1.1248612776
 H         -0.8499863369       -2.6317207189       -1.9473107152
 H         -0.2737826516       -3.7403930384       -1.0036370969
 O          1.0625620897        3.1328449333        5.3533152002
 H          1.9585621266        3.1007554205        5.7447160363
 H          0.6016617222        3.8169678077        5.8747475655
 O          2.9076152109       -0.6224526503       -1.5242207548
 H          2.5698618685       -1.3283266282       -0.9317617598
 H          2.4681448303       -0.7303438519       -2.3909120575
 O         -5.9998122875        1.2456410019       -6.1292869930
 H         -5.2953703420        0.6635524991       -5.7604062396
 H         -5.8703186942        1.2488015254       -7.0776348374
 O          5.3937420783        6.9402011577        4.4285931271
 H          5.4494404309        6.3165080453        3.6829101417
 H          5.4387210054        6.3773892892        5.2164372919
 O         -1.2624563120        4.2259135595       -3.8234443185
 H         -0.4515703270        4.4983364202       -3.3670979602
 H         -1.6931513717        5.0566874231       -4.0857230800
 O          1.4851623652       -2.5032529124       -6.9850503379
 H          2.1607512453       -1.8256591138       -6.7566776918
 H          0.6474665330       -2.1682113058       -6.5855575264
 O          5.3842937108       -1.4411135652        7.3704406589
 H          4.8798944949       -2.0744974245        6.8155764875
 H          5.3853231325       -1.7985702229        8.2573533998
 O         -2.0462257191        1.3090334076       -5.5570949785
 H         -2.0536935583        0.8037885506       -6.3945577177
 H         -2.8151115464        0.9310420063       -5.0701550599
 O         -5.1731370156        2.1533598516        1.5724132340
 H         -5.3928747363        1.2093233025        1.7287862669
 H         -5.0991572224        2.2912847957        0.6112001967
 O         -0.8879227448        8.7670466171       -2.7283571268
 H         -1.0166784807        9.6174843870       -3.1460338518
 H         -1.6672995691        8.6444385788       -2.0915884428
 O         -7.8488429373       -0.5449819118       -4.9139671338
 H         -8.0969023917       -0.4012715428       -3.9799704922
 H         -7.3338624660        0.2157196017       -5.2177758692
 O          2.6359749187        5.7759904928        5.6077954414
 H          3.4116187221        6.0187696805        6.1193598707
 H          2.9141374312        4.9874271190        5.0903631740
 O          2.3603257792        1.9725897253       -1.0142122899
 H          2.7036003362        1.0913585381       -1.2359428545
 H          3.1117885639        2.5156648437       -0.7569297862
 O          5.0074680845       -4.4213754720       -7.3269043223
 H          5.2703556608       -3.5049476114       -7.1588096144
 H          5.1194838664       -4.8880833330       -6.4814166148
 O         -2.1621131711       -6.5065578093       -4.5559367442
 H         -2.6721548209       -6.9501913255       -3.8670855849
 H         -1.3787907643       -7.0450505123       -4.7298847746
 O          2.0484295008        3.6748858205        1.2495824087
 H          1.9638732033        2.8166841734        1.7029210027
 H          2.9527630911        3.7363927234        0.9065580263
 O         -0.1110889130        1.2437338299       -3.7599924545
 H         -0.8538441807        1.2483191501       -4.4001355051
 H          0.2236924542        2.1451449795       -3.7039793040
 O          5.1097100366        5.1510351184        2.4248031859
 H          5.9410979109        4.7409707056        2.1212537267
 H          4.5419851293        5.2837018133        1.6525300296
 O          2.8721439980        3.3657345971       -7.8813743987
 H          2.2543979464        4.1004332208       -7.7635932610
 H          3.4938867145        3.4839877680       -7.1406175697
 O         -3.0123678651        2.2817185903       -2.8983277671
 H         -3.6935068750        2.4988647970       -3.5615072839
 H         -2.2971328692        2.9160730287       -3.0611631629
 O         -4.3010428414       -0.0796530877        0.0166406530
 H         -3.6962008840        0.6554001688       -0.1818169152
 H         -3.7457412797       -0.8182357564        0.2795316816
 O          5.3807526726        1.3606965794       -0.9487775548
 H          4.7506860824        1.2385157776       -0.2209198264
 H          5.6337960606        0.4459550441       -1.1741548344
 O          2.4510545959       -6.6554095089       -5.4205524443
 H          3.3715664154       -6.9254116448       -5.3880508625
 H          2.3899164729       -6.0179317688       -6.1702573365
 O         -3.2580116082       -4.3935997636       -5.8305833977
 H         -2.9172286123       -5.1870376465       -5.3801275692
 H         -2.6542856106       -4.2238343179       -6.5624184045
 O          4.5046695197        3.4958329015       -5.7357793474
 H          4.6818708413        4.1592491735       -5.0450146167
 H          5.2449185386        2.8589779795       -5.7065115239
 O         -3.5019172590       -3.7354881783       -1.8147082002
 H         -3.5916748085       -3.2075094255       -2.6333907913
 H         -2.5431564072       -3.7559277766       -1.6225980932
 O         -0.0235239837        0.6991009425        4.0823471131
 H         -0.6308331372        1.4468309030        4.2127716758
 H         -0.5242811271       -0.0215434936        3.6578022368
 O          0.1324055328       -2.8545554789        5.4732475913
 H         -0.3073419933       -2.6193459914        6.3131882072
 H          0.8704141996       -2.1967803183        5.4224171619
 O          3.0392863028        5.2629672919       -1.7973074102
 H          3.0628619859        5.1456939741       -0.8435848624
 H          3.1099051398        6.2194434994       -1.9690068012
 O         -0.4403488545       -4.8639059239        3.4905723323
 H         -1.3935525753       -4.6805797589        3.3611403676
 H         -0.1131706202       -4.2000606574        4.1110183035
 O          2.5002063321       -3.7944362926       -4.7550245137
 H          2.1574562871       -3.4094017827       -5.5802608851
 H          1.7317434292       -4.1800620689       -4.3017228701
 O          1.3251019572        5.3983810337       -6.7179458152
 H          1.7435750704        5.8850523634       -5.9936845319
 H          0.4025633047        5.7209878915       -6.7897506176
 O          4.4580531332        3.7221640988        0.1038542729
 H          4.9998631762        3.2308491743        0.7477850644
 H          5.0746132975        4.2315340196       -0.4645347519
 O         -1.2277686277       -1.6031827046        3.4455821099
 H         -0.9000177505       -2.0998187128        4.2150918416
 H         -2.2053415897       -1.6453782308        3.4489455837
 O          2.3986546744        6.5858772948       -4.4131903364
 H          2.6752311533        7.4012747579       -3.9781633074
 H          1.6610891312        6.2621819739       -3.8478006809
 O          8.3289301747        1.8683062270        2.9037347834
 H          8.8944334053        1.6713135380        2.1227122370
 H          8.0627855562        1.0050453304        3.2438834289
 O          4.8619614987        0.2602764037       -3.7681631091
 H          4.0705904326        0.8267965621       -3.8502189727
 H          4.5489538571       -0.6596563720       -3.6820494009
 O          4.8782336305       -5.3630546802       -4.7309665205
 H          4.0425985887       -4.8690118388       -4.6429142360
 H          5.5902712843       -4.7364575065       -4.5124580358
 O         -5.1237660593       -1.4329583704       -2.2143494935
 H         -4.1805775049       -1.1499214318       -2.1778464648
 H         -5.6267607367       -0.6099284258       -2.3170839651
 O          3.7811019271        0.5302052516        1.0857597264
 H          4.0690566789       -0.3867079815        1.2343720634
 H          3.0392301565        0.7043102182        1.6817456636
 O          5.5446989504       -6.4241462171       -2.1810273349
 H          5.1910830009       -5.5738224261       -1.8457656553
 H          5.5138066442       -6.3286005195       -3.1423208842
 O          8.4977188541       -0.8743918253       -0.6802584032
 H          7.7869244002       -0.6257549038       -0.0388303669
 H          8.2328979348       -0.4288973732       -1.5034911720
 O          1.6385319664       -0.7655280845       -3.8293770068
 H          2.2140681913       -0.7457964487       -4.6131547117
 H          1.1016679593        0.0560453089       -3.8507244565
 O          1.7293029377       -0.7758024955        5.4200567767
 H          2.1421573571       -0.9233669517        4.5266742815
 H          1.0246336929       -0.1288755801        5.2320561877
 O         -2.4122715152        0.8124823745        2.3122545637
 H         -2.2866840060       -0.0289657616        1.8508207347
 H         -3.1592630491        0.7171707573        2.9321815643
 O         -0.6581472206       -2.2662919958        7.9809526970
 H         -1.1699421966       -3.0597014107        8.1774604101
 H         -1.2075001551       -1.5011477705        8.2627850652
 O          0.9294039030        0.7969948923       -6.3791370105
 H          0.4577040331        1.6198305791       -6.1325008694
 H          1.0812434685        0.8869358871       -7.3394760130
 O         -6.0517247764       -2.3546738137        0.1466055266
 H         -6.0159005774       -1.6148217330        0.7775243774
 H         -5.6208548026       -2.0291682305       -0.6703309069
 O          0.0853948365       -4.7710412239       -3.9240815790
 H         -0.4216741665       -5.2390352826       -3.2335154408
 H         -0.1950488216       -5.1216598960       -4.7926158070
 O          4.3042896726       -2.3314675526       -3.4968458873
 H          5.1503750823       -2.6941750314       -3.8242019489
 H          3.5796236048       -2.7578395886       -3.9948614276
 O         -8.7238198157       -1.0336592584        0.9875005130
 H         -8.0011740956       -0.5240840391        0.5474454584
 H         -9.1525131983       -1.5371900223        0.2924289962
 O         -3.4452985170       -2.9557748112        0.7141575028
 H         -3.6779195603       -3.0108395331       -0.2323886964
 H         -2.7891844604       -3.6715909751        0.8282253566
 O          1.1350318467        1.4829557875       -8.9581795469
 H          1.8836248761        2.0759672565       -8.7867658897
 H          0.3626641248        2.0786472443       -8.9824197765
 O         -9.5497302101        1.9674392863       -1.6936593987
 H         -9.3892992469        1.0144823554       -1.8006887633
 H         -9.0445843489        2.2517157745       -0.9123509318
 O         -1.0679161237        4.5730472736        1.6020894620
 H         -0.4382429483        4.8272566241        2.2935572189
 H         -1.8692487607        4.2482106169        2.0473038231
 O          4.5966244409       -2.1324896371        1.2649758876
 H          4.6446221811       -2.1219278142        2.2460783173
 H          3.6987090706       -2.4018721613        0.9907641754
 O         -3.0384436093       -4.5750609108        3.5625349409
 H         -3.1215350250       -5.4812238123        3.9250212618
 H         -3.7646440227       -4.4903243370        2.9182380459
 O         -4.1868295350       -5.7194375470        6.3931658048
 H         -4.6612358398       -5.0479153706        5.8673307875
 H         -3.9129762559       -6.4013943549        5.7639178879
 O         -6.1126483271        4.5116417810       -2.7143997015
 H         -6.9968560140        4.1503294875       -2.8706877646
 H         -5.6022669076        4.1313842530       -3.4679156777
 O         -2.4557176415        1.8758680433       -0.1489947830
 H         -2.4405649969        1.7061145777        0.8094891026
 H         -1.5909651491        1.5462232651       -0.4961104810
 O         -2.3827010791       -0.0687630231        5.9709367415
 H         -1.4708967852        0.2771764349        5.9603616794
 H         -2.3557479189       -1.0039689734        5.7169344080
 O          2.4315789153       -5.8739441840       -2.7763414495
 H          2.7653927838       -6.6933076492       -2.3571788311
 H          2.3185964658       -6.0740277416       -3.7191894996
 O          6.6715118669       -3.4597561487       -4.0955175017
 H          7.2245369977       -2.8085955278       -4.5490253510
 H          6.9865624146       -3.4777584619       -3.1632219089
 O         -3.3993436351        2.7204960587        6.7675196898
 H         -4.0665969863        2.0432525866        6.9829392402
 H         -3.8609842388        3.4539421420        6.3177219245
 O         -2.1162994274       -4.5752815892        7.5313103628
 H         -1.3264470547       -5.0843422649        7.3151133212
 H         -2.8886456559       -5.1029541699        7.2050289492
 O          4.4356713178        0.9029054760       -7.6383256017
 H          5.1688471881        1.2002107480       -7.0793187839
 H          3.9699085434        1.6936702819       -7.9285991435
 O          5.7117421775       -1.7497263491       -6.6286563922
 H          6.4851008647       -1.5076652419       -6.0864519566
 H          5.6664959553       -1.1099363804       -7.3439480982
 O          3.6251974912       -4.8785059099        0.9969456623
 H          3.4592884214       -5.8360919417        0.9086921458
 H          3.8583570877       -4.5459031064        0.1112465546
 O          6.5094974583       -4.0161098553        0.8744922403
 H          5.7671983855       -3.3903586770        1.0195507380
 H          6.7857836975       -3.8677959368       -0.0513217937
 O          7.8998052359       -1.2050304439       -5.0771556068
 H          8.7232803135       -0.9199703146       -5.4691953414
 H          7.7484222360       -0.6311768215       -4.2780635681
 O         -6.3710249000        5.0922782413        0.1542890512
 H         -6.4552713458        5.3020076890       -0.7785935780
 H         -5.4267675112        5.2562062363        0.3867107561
 O          0.4453962202        6.3082296542        0.0149412437
 H          0.3610710113        5.3320372114       -0.1123904165
 H         -0.4052298907        6.5757435552        0.4370517130
 O         -1.7002132040        2.7276819034        4.7045739553
 H         -2.2761232072        2.5069466852        5.4594489100
 H         -1.5067548885        3.6761419539        4.8004964866
 O         -0.3822001513       -8.5247426915        0.4173246928
 H         -0.0638465718       -7.6876902630        0.8149380700
 H          0.0197204150       -8.5563192371       -0.4632378986
 O         -2.3766643153        4.3344653563       -0.9520760301
 H         -2.5150337917        3.3911854318       -0.6823061674
 H         -1.4139841790        4.4162982831       -0.8790680643
 O         -2.9530015772        3.6557155865       -6.4109311388
 H         -2.4776322395        2.8822688637       -6.0237387571
 H         -3.2849656541        3.3123885061       -7.2675579105
 O         -8.5477880870       -5.0095078136        0.7349316611
 H         -8.5830599321       -4.3956600077       -0.0204992792
 H         -8.4526735814       -4.4400696333        1.5165981326
 O         -2.7336670946       -2.7759041807        5.5809157676
 H         -2.9153086844       -3.3923322361        4.8456641345
 H         -2.5069725795       -3.3411248939        6.3393471830
 O         -2.8926193265       -8.9438356842       -0.0109811893
 H         -1.9167988339       -8.7857407636        0.1569446061
 H         -3.0468808029       -9.8736996941        0.1466245116
 O         -4.4093494384       -1.9026916797       -6.8643748641
 H         -4.0863520771       -2.8001237351       -6.9721567131
 H         -4.9631446123       -1.9526807441       -6.0642048715
 O         -2.2559042475        6.7758098644       -4.3193649148
 H         -1.7489874778        7.4909179211       -3.9154095742
 H         -2.9757072184        6.5790315006       -3.6858181190
 O          2.9350098201       -5.2914168021        4.8050900414
 H          3.8383129672       -5.3406146015        4.4380770138
 H          2.4666537724       -4.7231884066        4.1455815273
 O         -6.9066765176        0.4039621178       -0.3310619155
 H         -5.9544603425        0.2505848562       -0.1653296316
 H         -7.1157371132        1.3167474498       -0.0645376039
 O         -3.8469528165        5.4473465594        0.9204934710
 H         -3.2923203012        5.0193657702        0.2205905096
 H         -3.7590201501        4.8661990406        1.6933385288
 O         -1.7076794409        5.4198674584        5.0838512133
 H         -1.1477011987        5.4900586506        5.8688892056
 H         -1.4284880310        6.1411045404        4.4989935749
 O          1.0409590001        5.0142460003        3.2880775512
 H          1.5265501275        4.6395136293        2.5220789057
 H          1.0268255558        4.3112766093        3.9577813955
 O          5.3074251479        4.8555568640        6.3352942886
 H          5.8511666871        4.2309457128        5.8292802228
 H          4.6018609961        4.3043097272        6.7120768072
 O          6.1188456587       -6.7618221695        0.6059181741
 H          6.2654312104       -5.8249133294        0.8286857129
 H          6.1899343234       -6.8121369215       -0.3540048703
 O         -5.9985749362        1.0062187264       -2.9140243573
 H         -6.7026772798        1.5611446267       -3.2892551146
 H         -5.6528790584        1.5119125167       -2.1497126566
 O         -3.2638715861        3.5407453402        2.7315118483
 H         -2.7802230650        3.0889163402        3.4504945804
 H         -3.8401742029        2.8638060972        2.3256001286
 O         -1.3429373029        5.8315117057       -6.7730204899
 H         -1.6433311418        6.3753434571       -6.0339818537
 H         -1.9080770903        5.0341511324       -6.7092605689
 O          1.1289980316        8.7872863297       -0.7275913940
 H          0.8986904506        7.8979384163       -0.3989875590
 H          0.4326565239        8.9981136707       -1.3663938328
 O          6.9162957043        0.4791202502        5.9314244592
 H          6.4338396494       -0.1526950261        6.4780606525
 H          7.2581861028       -0.0258163985        5.1791564236
 O         -3.0925790247       -7.1497614721        4.2704729427
 H         -3.3204545685       -7.3133208546        3.3374204066
 H         -2.1510259446       -7.3858015059        4.3821396626
 O         -3.6873079395       -6.9713636041        1.6148085097
 H         -4.6053705776       -6.7707188469        1.3729987983
 H         -3.4375959541       -7.7316463131        1.0564295764
 O          6.3074491147        2.7902222392        4.7390230496
 H          7.1604650583        2.8636703200        4.2988097517
 H          6.3831998425        1.9558364646        5.2522547539
 O         -2.5616384265       -0.0970592261       -7.7699911985
 H         -1.8131618634       -0.5427581388       -8.1944590495
 H         -3.1970484677       -0.7713796378       -7.4563615851
 O          7.4147053158        0.2803075385       -2.9619626010
 H          7.5158346371        1.2495720895       -3.0921761951
 H          6.4472488907        0.1484627920       -2.9952187396
 O         -8.4805775158       -0.5198947466       -2.2587997337
 H         -7.7548199220       -0.1587594098       -1.7086000637
 H         -8.5483679081       -1.4555910223       -1.9962019687
 O         -3.8666516360       -1.8226388657        3.1393880243
 H         -4.3754197240       -2.4719613140        3.6370002297
 H         -3.7531564316       -2.1691571325        2.2371115071
 O         -2.8702178505        8.3855635624       -1.1558436158
 H         -3.3541099652        7.6115692301       -1.4946873189
 H         -2.5084833880        8.1136769346       -0.2911488391
 O          7.5339666896       -0.9390474568        3.5929839111
 H          8.1152047659       -1.5891541004        3.1491936253
 H          6.6903130883       -1.4105834515        3.7590001663
 O         -4.3196431560        0.7244137334        4.1523155220
 H         -3.7605716588        0.5192663268        4.9144649006
 H         -5.0503617476        1.2951945489        4.4452978703
 O          1.0832774931        9.1312915709        2.2700818949
 H          1.1744222168        9.1610143702        1.3107333046
 H          1.8778120823        8.7062562949        2.6292550676
 O          3.1946573562        3.1539988799        6.9958972609
 H          3.4386093787        2.2073887849        6.9781960534
 H          2.6108054626        3.2663963902        7.7587295343
 O          4.6189491448        3.0580547843       -2.9137032884
 H          4.7713079879        2.4052784494       -2.2059939191
 H          4.1610648606        3.8086157211       -2.5184325030
 O         -4.8439610321        3.2397669986       -4.6454253311
 H         -5.4028288034        2.5987455334       -5.1199312765
 H         -4.1963588079        3.5739136980       -5.3064611676
 O          5.9740459056        5.3197616947       -1.4016528607
 H          5.7453193839        6.1756540126       -1.0086963724
 H          5.6531979622        5.3401852360       -2.3159766720
 O          7.6291286231        2.8160118441       -0.7541813103
 H          7.4733552620        3.5158776057       -0.1052918148
 H          6.8098707775        2.2744903398       -0.7700187812
 O          4.9055516483        5.6344869206       -4.0573606432
 H          5.4042540318        6.2886273875       -4.5448512231
 H          3.9588823922        5.8893994372       -4.1281635928
 O          1.4208043008        3.6353610745       -3.2479022608
 H          1.9979667718        2.9273502753       -3.5996387332
 H          2.0257210465        4.2805246445       -2.8500979176
 O         -7.8736535332        2.8157638017        0.3558095432
 H         -7.3110411857        3.6084744042        0.2679047426
 H         -8.2261609864        2.8342630432        1.2555493003
 O          4.9851393025        7.5671696318       -0.0966470554
 H          5.4630913923        8.0003154838        0.6094416900
 H          4.2060956191        7.1228267417        0.3265065062
 O         -0.8081990944        3.3254452976       -8.5125818674
 H         -0.6460845475        3.2443576884       -7.5425158081
 H         -0.7783294731        4.2666448482       -8.6907770334
 O         -0.1509839224       -1.0806254322       -8.9462928258
 H          0.2644751419       -0.2416430819       -9.1802240135
 H          0.5243940466       -1.5814545425       -8.4670398337
 O          4.1427153132       -4.1919805593       -1.5552438595
 H          3.4349434586       -4.6794860027       -2.0184946289
 H          4.2571495037       -3.3615388800       -2.0538974403
 O          8.6454963778       -2.6380936503        1.8544446948
 H          7.9069715178       -3.2121666090        1.5654410041
 H          8.9213700198       -2.1476737474        1.0750875328
 O         -3.8591902331        6.0905815847       -2.2987393749
 H         -3.2996897988        5.3995136285       -1.8819449692
 H         -4.7240208084        5.6920443092       -2.4507423929
 O         -5.9929367964       -2.3945474041       -4.5889925679
 H         -5.5475055977       -2.0827988030       -3.7716574995
 H         -6.7264108376       -1.7574154286       -4.7629172363
 O          0.6399447277       -8.1497380968       -2.0852285481
 H          1.5926427118       -8.2794213286       -1.9859559798
 H          0.4398323782       -8.2296830843       -3.0312129977
 O         -5.3020342071       -5.6293815105       -1.8049749198
 H         -5.9974869669       -5.2841074239       -2.3911442106
 H         -4.6290327585       -4.9082207588       -1.7693045754
 O         -1.5536065925       -3.2502825122       -7.6848521619
 H         -1.3553528408       -2.9283604464       -8.5664724620
 H         -1.3705608404       -2.4978430858       -7.0870196181
 O          2.3978365068       -5.0155363207       -7.5448533044
 H          2.0279187323       -4.1177916925       -7.4984064654
 H          3.3624610276       -4.8712691300       -7.6417261175
 O         -3.3598860256       -7.4208309641       -2.2570670024
 H         -4.1493609339       -6.8583380213       -2.1206204244
 H         -3.3166008608       -8.0399415220       -1.5119510407
 O         -7.1627291432       -4.3748488282       -3.3602683827
 H         -6.6788544265       -3.6623748787       -3.8715911574
 H         -7.7171441581       -4.8287176484       -3.9924606227
 O          3.2726730979       -0.8544103588       -6.0081242213
 H          4.1098109788       -1.3485421219       -5.9659048006
 H          3.4797303073       -0.1039076509       -6.5991637130
 O         -1.8378091333       -5.1039294631        0.8094553440
 H         -1.5565128303       -5.3803601542       -0.0825114191
 H         -2.4549885235       -5.7834535338        1.1341509761
 O          6.2904273686        1.4755475865       -5.6376652368
 H          5.7762848733        0.9452337759       -4.9787098289
 H          6.9335636037        1.9635544206       -5.1092159221
 O         -7.7428214193       -3.0385711122        2.5336244169
 H         -8.0497845908       -2.2919503684        1.9785281227
 H         -6.8545895711       -3.2802168029        2.2127822343
 O         -8.4829160082        3.0010289921        3.0794060139
 H         -7.5931089987        3.4149767083        3.2021422038
 H         -9.0436136307        3.3467889849        3.7717818979
 O          5.0565640068       -1.8981003288        3.8600536879
 H          4.5519725995       -2.3523360999        4.5504892065
 H          4.7916015032       -0.9428741544        3.9279522986
 O         -0.2407628773       -5.3930156983       -6.5395761482
 H          0.5834625356       -5.5146731545       -7.0193496675
 H         -0.6977073226       -4.6628026365       -6.9876494397
 O          0.2003628785       -8.0337520484       -4.8075897925
 H          0.9555456075       -7.4706137582       -5.0692805421
 H          0.0569862753       -8.6470477664       -5.5271851710
 O          3.2430052526        7.9745022388       -2.1809218385
 H          2.4981130570        8.3647243492       -1.6754606197
 H          4.0130188605        8.0569163604       -1.6018823885
 O         -7.9922258784        2.7250580701       -3.6444451291
 H         -8.6489440580        2.4873590115       -2.9338811764
 H         -8.4221641758        2.5645073381       -4.4834700230
 O         -0.5023726346        7.2454567947        3.3889339551
 H         -0.0224704699        8.0586629553        3.1426548112
 H          0.1618588891        6.5329774365        3.3369762884
 O         -0.6621695487       -1.3134313429       -6.0409762549
 H         -0.7501391953       -1.5179371943       -5.0914012273
 H         -0.1893398968       -0.4549183897       -6.1130221541
 O         -5.0305998367       -1.4778320030        6.3350806525
 H         -4.2792746425       -1.8889559031        5.8669378887
 H         -5.8209521222       -1.5773478153        5.7702521541
 O         -5.4180237402       -3.8744312541        4.7714826447
 H         -6.2267870450       -3.4672491878        5.0942161402
 H         -5.6039685879       -4.1879720310        3.8736912673
 O         -4.9774548413        2.6511894816       -1.0889008135
 H         -5.3965565984        3.4249667770       -1.5030732175
 H         -4.1089592037        2.5334865244       -1.5244943947
 O          7.5144743274        4.1575400697        1.6698304531
 H          7.6448733787        3.2822220413        2.0926557340
 H          8.3083284013        4.6616904003        1.8423629322
 O         -1.1252929045       -6.0159572638       -1.7266517595
 H         -1.9733097142       -6.4387869897       -1.9725791658
 H         -0.4706673513       -6.7307399412       -1.7230154809
 O         -2.3856974259       -0.3215539598        8.6102674277
 H         -2.5238048235       -0.1370000480        7.6497122798
 H         -3.0668283728       -0.9833276199        8.8390338510
 O         -1.5530726922        2.3166453024        8.6475808133
 H         -1.8852671693        1.4540984150        8.9418284835
 H         -2.2440412971        2.6643607357        8.0506877872
 O          1.3963563160        0.3627064305        8.7837967020
 H          0.7229198545        0.0237287155        9.3752669728
 H          0.9375972520        0.5273083793        7.9214212338
 O          0.7288384931       -6.2667504168        1.3947328445
 H          0.1733122271       -5.7039357612        1.9574533979
 H          1.3612744916       -6.7003185044        2.0013371223
 O         -5.3113271368       -4.2283204346        2.0784708257
 H         -5.6539292314       -5.0083458631        1.5827358050
 H         -4.9128478128       -3.6458433334        1.3944665493
 O         -4.4463265466        4.6418487773        5.1793988252
 H         -4.8259897956        4.5561177990        4.2888727027
 H         -3.5704912962        5.0411253221        5.0604244748
 O         -6.2879397464        2.2873248012        5.2131925866
 H         -5.9154383132        3.1735408316        5.2593284350
 H         -6.1891968083        1.8827211780        6.0847441293
 O         -0.3884871225       -7.2499448857        4.6092031624
 H         -0.3814099726       -6.3979521904        4.1078933774
 H         -0.1593416112       -6.9716559303        5.5058200121
 O         -8.2562399588        0.3041621469        3.3947262921
 H         -8.3095223988        1.2744410657        3.3293518005
 H         -8.7469223625       -0.0618897066        2.6474300602
 O          1.1255547658        3.1180556275        8.8877063074
 H          0.1601379388        3.0574602460        8.9387888359
 H          1.4233289667        2.2016348022        9.0280651987
 O          0.3665882620        5.1857252036        6.9309732388
 H          0.6413973235        4.8010124441        7.7699081619
 H          1.1688443865        5.5718692059        6.5194771422
 O         -5.9485282499       -0.3691858250        2.1554008844
 H         -5.2162792691       -0.5829642552        2.7568935585
 H         -6.7204056381       -0.1471121435        2.7065166856
 O          2.1226835415       -2.1900453727        8.0480562194
 H          2.1609621400       -1.2486373485        8.2828406670
 H          1.1762189114       -2.3936296599        8.0354149568
 O          3.6492191932       -2.9263311297        5.9893076316
 H          2.9886283167       -2.6408447497        6.6567531779
 H          3.4159136669       -3.8350997038        5.7370942736
 O          2.1009246776       -7.4697606197        3.3847305226
 H          2.4608747606       -6.7638641597        3.9579433328
 H          1.2619559603       -7.7320092316        3.7963708242
 O          7.2411521260        2.9185665399       -3.4427963516
 H          7.6007589575        3.1730056876       -2.5776010999
 H          6.2715798165        3.0633454307       -3.3365280341
 O         -8.2277819661       -3.0360295638       -1.1943770186
 H         -7.4210696086       -2.7987587599       -0.6711729217
 H         -7.8946079451       -3.5378519472       -1.9581977944
 O          3.6089036226       -7.5453110784        1.0088000643
 H          4.5843069576       -7.4156714938        1.0427239329
 H          3.2992144122       -7.7976849922        1.8867743635
 O          2.9375196514        7.4374631601        3.4433853496
 H          3.8500287676        7.4779902157        3.7972768632
 H          2.4750782044        6.8579865084        4.0740409631
 O         -0.0761455445       -3.0086128312        1.5303749882
 H         -0.5640518638       -2.4072214079        2.1293404296
 H         -0.6803045174       -3.7027206057        1.2400446099
 O         -6.1728643560       -6.2308916241        0.6374885449
 H         -7.1187565080       -5.9624473094        0.6698093066
 H         -5.8829612283       -6.0403927921       -0.2831438610
 O         -4.1002018417       -2.3969496815        8.7076656433
 H         -4.5876540128       -2.1751648607        7.8914244523
 H         -3.7017111622       -3.2577362068        8.5567595225
 O         -1.8255763548        7.2477734281        1.0478522795
 H         -2.5579528073        6.6006723416        1.0967457944
 H         -1.4771601014        7.3338837076        1.9574519918
 O          5.1248374987       -5.1114975885        3.2892336538
 H          4.6941133103       -4.9939265587        2.4224464424
 H          5.9933862430       -4.7188644555        3.2087077818
 O          2.9654929681        6.3224043031        1.0370126148
 H          2.0413305268        6.3062051309        0.7245971093
 H          2.9265312759        6.6932689869        1.9476318233
 O         -5.2794859013        0.9007277992        7.4104789516
 H         -5.4235527149        0.6855886773        8.3312432415
 H         -5.1326923967        0.0373677233        6.9490324438
 O          0.5413349237       -5.3862468046        6.4621597317
 H          1.4603675940       -5.5987395463        6.2723198507
 H          0.4300951019       -4.4812707164        6.1132572006
 O         -0.0677006070        1.1311685174        6.7364094191
 H         -0.6085650636        1.6368464456        7.3744144348
 H          0.3328464972        1.7928056551        6.1316639499
 O         -7.2743367413       -1.7852071330        4.8570255168
 H         -7.5039040039       -2.2826387243        4.0402671807
 H         -7.6404107294       -0.9063530805        4.6914041023
 O          9.5356914081        1.4123086897        0.5617009349
 H          8.9409655713        1.9663565053        0.0160242212
 H          9.4416474172        0.5205146062        0.1951374777
 O         -6.1284015363        4.2105598339        2.9303694559
 H         -5.7620605722        3.4157246453        2.4722570244
 H         -6.3015739693        4.8470030520        2.2307048996
