  462
       -779.02093286
 H         -0.7113735362        1.3686429253        0.7674891618
 C         -0.0325212236        0.5300740661        0.6507862088
 H          0.9889147339        0.8800768078        0.8022553363
 C         -0.1810825114       -0.0872315694       -0.7348107593
 H          0.4736296392       -0.9506624804       -0.8096618264
 H          0.0800772224        0.6400582981       -1.4938722465
 O         -0.3983120630       -0.3900206099        1.6532802389
 H          0.1014942093       -1.2235400722        1.5278732571
 N         -1.5622981176       -0.5291333467       -0.9580399731
 H         -2.1996136521        0.2734170096       -1.1462090269
 H         -1.9087139152       -1.0607823674       -0.1184258892
 H         -1.6376884785       -1.1548421320       -1.7791638471
 O          1.0257865094       -3.1087821257       -4.4755281838
 H          0.2989536103       -2.9561316989       -5.1070632640
 H          1.1271055032       -2.2865151499       -3.9602433059
 O         -0.2683822157       -5.0298376861        1.7634292479
 H          0.0361844261       -5.6957626165        1.1378687905
 H          0.2631654271       -5.1401793720        2.5716048819
 O         -5.0592778992        0.5526618644       -5.2319853927
 H         -4.6338509462        1.3996514757       -5.4143119826
 H         -5.2324122005        0.5398792203       -4.2589553317
 O         -8.4033647078       -3.0547902037        0.4504023131
 H         -8.8594383871       -3.4362348552       -0.3207610010
 H         -7.9121230046       -2.2654461435        0.0956652990
 O          2.6478320314        0.6566894261       -1.0327920109
 H          2.2377397320        1.5305811195       -1.1091309446
 H          2.3937650547        0.1456032871       -1.8229600984
 O          3.4681836099       -3.9007719924       -5.2529568262
 H          3.3474475651       -4.4962440520       -5.9907000300
 H          2.5899698341       -3.5165103855       -5.0478767006
 O         -3.4670969487       -1.6087493930       -5.0875641074
 H         -4.0006912500       -0.8180056507       -5.3143103703
 H         -4.0649621828       -2.3618845240       -5.1502547811
 O          0.9629736254       -0.8616730425       -6.4566664598
 H          1.8605044557       -0.8548307913       -6.0571304012
 H          0.8661531714       -0.0003227404       -6.8817326111
 O          0.9762939976        2.8835207597       -1.7392921568
 H          0.0862155475        2.9769913344       -1.3332447108
 H          0.8293651797        2.3883378204       -2.5681653703
 O          7.0253526108        6.3942503432       -1.3746599426
 H          7.4119417238        6.2773780213       -0.4907838018
 H          7.3653387644        5.6831171631       -1.9321211776
 O         -2.9202419109        1.4595786762        0.8016365576
 H         -3.5316002955        0.7967048863        0.4503768950
 H         -3.2252635462        1.6414924714        1.7009602099
 O          3.1068123963       -5.4201568116        0.1015022494
 H          3.3407993440       -5.2325326770       -0.8209390528
 H          3.8941794112       -5.8374836754        0.5106110791
 O         -3.9169962641        3.1947823461       -5.3610491062
 H         -4.5167363926        3.3768416093       -4.6000649134
 H         -4.3221134494        3.6190674004       -6.1186022392
 O          3.4297063422       -3.6194137658        2.1893443099
 H          3.3103176019       -2.6875633158        1.9561047647
 H          3.3288978072       -4.1255719663        1.3650902210
 O          3.3313588739       -0.4844168595       -5.2832283798
 H          4.1238763857       -0.9900457117       -5.5556641422
 H          3.4555177493        0.4325389163       -5.5832866668
 O         -6.1433310071       -1.5684045915        5.3344557604
 H         -5.4393574121       -1.4011567289        4.6713937752
 H         -6.9176321453       -1.9023792339        4.8579464273
 O         -2.1922041824        3.1458369783        3.4308040831
 H         -2.1245358070        3.4407001651        4.3543428280
 H         -2.0387098123        2.1785769965        3.4556155189
 O         -3.1029789999       -4.1150132399       -1.6302689146
 H         -2.2823465745       -4.0590010968       -1.1177132644
 H         -2.9333100255       -4.6729134337       -2.3932346910
 O          1.1043324888        4.8729251914       -3.5317484359
 H          1.1576951489        4.1894319813       -2.8255850658
 H          0.2449680581        4.7433827431       -3.9540749955
 O         -2.6543445729       -1.9723868198        1.0270568804
 H         -2.8256696567       -2.9320313367        0.9256890430
 H         -2.1189378510       -1.9259214568        1.8396703635
 O          0.9294512293       -2.6684285674        1.2819772481
 H          0.3778557387       -3.4709278762        1.3663423880
 H          1.4741800891       -2.7304622705        0.4854374976
 O         -2.0852190743       -6.9065502979        2.9969826241
 H         -3.0031509805       -6.6159643896        3.0875512842
 H         -1.5862592406       -6.3191687162        3.5785596230
 O         -1.4113400918        3.3295720072       -0.5828088793
 H         -2.0396020536        2.6668902533       -0.2508627141
 H         -1.0515367389        3.7600994057        0.2353721736
 O          6.5616698693       -3.6198783173        1.5149900795
 H          5.9710555005       -3.1462319908        0.9016002505
 H          7.4486829370       -3.2466941851        1.3791403026
 O          1.7560729225       -0.7661485452       -3.1762158876
 H          2.5481925289       -0.8907715174       -3.7339942727
 H          1.3571119934        0.0549321279       -3.5475268776
 O          0.4142055514        4.4844810464       -6.8295611201
 H         -0.2089986464        4.5610293831       -6.0893425615
 H          1.2879963753        4.7359979902       -6.5035318343
 O         -9.8745309229        0.2474422534       -1.3532897385
 H        -10.5477035331       -0.4350900719       -1.2004453996
 H         -9.5552288297        0.4714033417       -0.4653868301
 O          5.9249962048       -5.0429607336       -1.2285301154
 H          5.3333809692       -4.3552985894       -0.8607677211
 H          5.9666317424       -5.7495790151       -0.5788285763
 O         -6.5051802867       -6.6480072837        0.7865402989
 H         -7.0037777534       -6.3802417555       -0.0025067983
 H         -5.5787080672       -6.7141385979        0.4907810295
 O         -1.7384446099       -7.7369670844        0.3867538507
 H         -0.8698991164       -7.4540156327        0.0833192681
 H         -1.7880249886       -7.5447977102        1.3412042315
 O          1.9162482756       -2.8261975963       -1.3165575256
 H          2.4554946273       -3.5270094574       -1.7300691937
 H          1.9918892861       -2.0737966360       -1.9202412240
 O          7.4848482124       -2.8218059855       -1.5583023659
 H          7.0794458439       -3.6897558939       -1.4045643224
 H          7.1557167810       -2.2230150585       -0.8473979568
 O          5.3791886309       -0.7158728538        2.6218548070
 H          5.4017508273       -1.5477029335        3.1336318486
 H          6.0234291653       -0.8172187228        1.8957402402
 O          6.6089497089        2.7866269874       -0.6441561647
 H          6.8366516782        3.3154834841       -1.4324870864
 H          6.2024674373        3.3773978740        0.0144916902
 O         -7.3168383092       -0.8667651303       -0.4234652180
 H         -6.3618042310       -0.8874815724       -0.2403572785
 H         -7.7166458206       -0.2643688655        0.2247445070
 O         -0.6280730506        0.9617429083        6.0249238660
 H         -0.1198282759        0.1548213851        6.1825455629
 H         -1.0405576506        0.8100336055        5.1399519342
 O          4.4222898819        5.8928139763       -1.3319960345
 H          5.3698828716        6.1580156497       -1.3013616053
 H          4.0088889169        6.3074053519       -0.5656297902
 O          6.0431283304        1.0793163724       -6.6813222266
 H          5.1491252694        1.4488575416       -6.7121702286
 H          5.9504576324        0.1224265585       -6.6786876873
 O         -0.8096153871       -0.2752189868       -4.5174981340
 H         -0.9651195373       -1.0585461747       -3.9661086042
 H         -0.1308730032       -0.5132708076       -5.1817853473
 O         -1.1553385568       -2.4328710941       -2.9849546131
 H         -1.6279155877       -3.0549279732       -3.5650183715
 H         -0.8360609766       -2.9835999838       -2.2478272318
 O         -4.5214781652        1.3615959664        3.0244552582
 H         -4.5498030727        0.4083811483        3.1864927690
 H         -5.2071264042        1.5603015026        2.3590943039
 O          3.4686802262        6.0063434647        1.2709015731
 H          3.1860153714        6.3253319358        2.1334390051
 H          2.6464081112        5.6875768906        0.8244399765
 O         -2.4664980949        6.2311633975        3.4384016738
 H         -3.1724813630        5.8184139524        3.9706225522
 H         -2.8903830949        6.4703037679        2.6016730086
 O         -1.3999823504       -4.8470271341        4.8514627192
 H         -0.6862773949       -4.6933543426        5.4800805240
 H         -2.2262196826       -4.8369224991        5.3420478455
 O          3.2559048609       -1.0868004574        1.0324824535
 H          3.9320745765       -0.6690015545        1.6021608660
 H          2.9609292966       -0.3971855252        0.4201197794
 O         -5.7126801809        3.7434613163       -3.4902337448
 H         -6.3596192192        3.1968108895       -3.0300307751
 H         -5.5263320818        4.5076093686       -2.9314142060
 O          1.2093823684       -3.9726567401        6.0434961767
 H          1.3267389815       -4.3774193734        5.1580660667
 H          2.0707006062       -3.5696898046        6.2284319780
 O          2.3202777077        2.8128129230        6.1120219448
 H          2.6655279724        1.9028490307        6.1141161759
 H          2.6507119553        3.2364011653        6.9026440614
 O          3.3698879058        1.9814172506       -6.4127062291
 H          3.2731683659        2.8885795108       -6.0487202572
 H          2.6050483548        1.8651122555       -6.9846559738
 O         -4.0005091620       -6.5249803754       -0.3317948532
 H         -3.6733590572       -5.7105648727        0.1086468444
 H         -3.2763637103       -7.1633870551       -0.1771527466
 O         -1.4060210481       -2.5616761720        3.2970566448
 H         -0.8637266443       -2.0674348464        3.9224336117
 H         -1.4370701909       -3.4680599875        3.6336497303
 O         -7.8125508936        2.0061366961       -2.2370883124
 H         -7.8695599789        2.5627883515       -1.4329653056
 H         -8.5824953114        1.4241851520       -2.1706509106
 O          6.8198647488       -1.0320757786        0.3305783259
 H          7.5863257223       -0.4452407895        0.1867834175
 H          6.0997517619       -0.5697563922       -0.1534885374
 O         -3.9511049752       -1.2374654216        3.7638599946
 H         -4.0447920962       -1.9284268033        3.0846868218
 H         -3.3939788009       -1.6073663554        4.4872513792
 O          2.5833927033        0.9108439677        3.2377016207
 H          1.8577107282        1.5617308464        3.2875980749
 H          3.2139915292        1.2222447538        2.5578311946
 O         -9.5410442686       -3.7590265802       -1.9081722907
 H         -8.8705933261       -4.4650098114       -1.9583340687
 H         -9.2628502609       -3.0670230521       -2.5325449759
 O          5.6879082478        3.3403895107        3.8369621331
 H          4.7374461853        3.5743166338        3.8669472141
 H          5.7504782088        2.4963415032        4.3319647947
 O          1.8030320252       -1.5586651841        3.5372841461
 H          2.0768534412       -0.6516822383        3.2749888258
 H          1.4999009965       -2.0072974339        2.7274471306
 O          7.7006600042        5.8887723301        1.2473405242
 H          7.6433668651        6.5818162146        1.9038929878
 H          6.8500554998        5.3661165937        1.3013602383
 O         -0.4517660788        4.1730383336        1.6606691322
 H          0.4178131605        3.7089750965        1.6271306817
 H         -0.9787433754        3.7700246650        2.3788414138
 O         -1.3672072629        4.2074483119       -4.6470097275
 H         -2.2388023941        4.1039569115       -5.0506260590
 H         -1.2292572027        3.3350125944       -4.1664132934
 O         -4.5118424080        3.2667349304       -0.6724981864
 H         -4.6337932933        4.1304672696       -1.1180350808
 H         -4.1083889796        3.4849750131        0.1954841255
 O         -7.1335211026       -4.5551642075        2.2698884419
 H         -7.6214907147       -4.0668273576        1.5738805847
 H         -6.9351181657       -5.4175524933        1.8374775612
 O         -9.0376731449        0.6246844510        1.2516724655
 H         -9.4957483236       -0.1727914331        1.5903810185
 H         -8.6115238906        1.0345865007        2.0205595751
 O          4.2356648795       -2.0978416043       -2.9493172187
 H          4.5944313152       -1.2667067700       -3.2938381875
 H          4.7064886463       -2.8143345412       -3.4065622842
 O          1.6823941469       -5.0378937313        3.6136210265
 H          2.3104698596       -5.7360684020        3.8245446009
 H          2.2167094448       -4.3746405434        3.1162617577
 O          0.3642122050       -5.3981278778       -3.2187204981
 H         -0.5109619130       -5.5949702657       -3.5629656035
 H          0.5900634955       -4.5294048097       -3.6186130410
 O         -6.6949865740       -0.7309652728        2.3978379000
 H         -6.8879397540        0.1769905246        2.6917855915
 H         -7.3469476762       -1.2962466252        2.8439196592
 O         -0.4764963070       -3.8886143268       -0.8732655343
 H         -0.2929525387       -4.8326248530       -0.7627968695
 H          0.4100238554       -3.4832444092       -0.9867267094
 O          8.5436158671        0.8334005569       -0.4987059604
 H          7.9323331450        1.5923353747       -0.4462075479
 H          9.3056721108        1.0297985332        0.0636956522
 O         -7.3251104917       -5.3057826323       -1.5256746246
 H         -6.7731586029       -4.6145136643       -1.1000126487
 H         -6.7193000355       -5.7407509936       -2.1438953925
 O          0.6615828076       -6.3748355879       -0.5615013403
 H          0.6552574873       -6.3404206637       -1.5284747319
 H          1.5731010214       -6.1413716525       -0.2865963652
 O         -5.5353005422       -3.5455051174       -0.5865810105
 H         -5.3664982701       -3.2572246077        0.3382444754
 H         -4.6892044837       -3.8924775874       -0.9089516381
 O          3.8465902752        2.3514701272       -3.3596361602
 H          4.2830975841        3.1821533944       -3.6319979778
 H          4.4251394586        1.6230032100       -3.6203425821
 O         -0.0978946962        6.7796925006        1.8866658318
 H         -0.7991561497        6.9360285207        2.5277432573
 H         -0.1450071046        5.8105135719        1.6920694065
 O          7.1034157168        1.8386140605        1.9772015412
 H          6.7949542791        2.3133978489        2.7635691261
 H          7.5818057329        1.0437936541        2.2830583570
 O          4.4567253435       -5.5416111301        3.8797725091
 H          4.2892118373       -4.7021462667        3.4146027584
 H          5.0491813681       -5.3192740397        4.5989626347
 O         -3.7536235476        6.7389028356        0.9359011547
 H         -2.9143172775        6.9928789335        0.4311859878
 H         -4.2156341113        7.5579359164        1.1124189671
 O          9.0145994718        3.5268602621        1.1792412934
 H          8.6917209754        4.4348070204        1.3120128935
 H          8.2454802453        2.9422469385        1.3849011858
 O          9.1137708700        0.2651064493       -3.1060651238
 H          8.8941385387        0.5203706157       -2.1895728575
 H          8.7767568004        0.9826953618       -3.6641589323
 O         -1.1370474671        2.0451740187       -3.2859542151
 H         -0.9373909739        1.2344537044       -3.7884006128
 H         -1.9796735619        1.8736575534       -2.8194318974
 O         -1.1391116788       -2.6963939609       -6.1427330392
 H         -0.6128198233       -2.1184362036       -6.7062476891
 H         -1.9066007751       -2.1693891685       -5.8474977936
 O         -2.9166714029       -4.5890528971        1.1682143856
 H         -3.4697140494       -4.7386534588        1.9581611814
 H         -2.0061709204       -4.8103100243        1.4330629830
 O         -1.6126731860        7.4219953457       -0.2840806970
 H         -1.4089114029        6.8940962331       -1.0697984032
 H         -0.8835504471        7.2818224002        0.3504035491
 O          3.3910560019        0.3298615134        5.7009837765
 H          3.0859401462        0.4946720407        4.7772920983
 H          3.3805443673       -0.6368317589        5.8191061809
 O         -1.9935850669        5.3666871458       -2.2039440185
 H         -1.7859794157        5.0817864381       -3.1068189501
 H         -1.7933818076        4.6012920268       -1.6209666380
 O         -5.9964522360        1.6326284081        0.7767148623
 H         -5.7015193028        0.7492778704        0.5117169046
 H         -5.5042451284        2.2454780772        0.1922563303
 O         -0.2516867640        5.1208272128        4.7129669158
 H         -0.6695820253        4.7627021934        5.5043960452
 H         -0.9790496405        5.5118229048        4.2001915994
 O          4.7174748998       -2.7829535372       -0.4150646490
 H          4.1349718683       -2.1936394581        0.1090932719
 H          4.5776453961       -2.4891488118       -1.3392818362
 O         -2.5986205406       -1.9269974691        5.9333310212
 H         -1.6356529795       -1.8341797234        5.8421193824
 H         -2.8948526393       -1.1474244468        6.4581982886
 O          1.3724831020        5.2828579479       -0.1368061495
 H          1.0874752962        6.0026681031       -0.7236528245
 H          1.4088133313        4.4741898263       -0.6577145113
 O          7.5864259527        4.0337568544       -2.8184673291
 H          8.4736951712        3.9230225387       -2.4167636710
 H          7.5500168807        3.3438513330       -3.5172797836
 O          0.5164906762        1.8445367447       -6.7274864509
 H         -0.4386023254        1.6187825375       -6.6910416902
 H          0.5188046009        2.8086826356       -6.9222757703
 O         -8.7210539898       -1.4651730638       -3.1617660154
 H         -8.5412496511       -0.8806010901       -3.9234151648
 H         -9.0123150934       -0.8680010439       -2.4457328710
 O        -11.3791968045       -2.0238691401       -0.7346843265
 H        -10.7951120705       -2.7086255392       -1.1049924855
 H        -12.2372018594       -2.1604313710       -1.1364843950
 O          3.0803136257        3.9317953276        3.7027533185
 H          2.7010591662        3.5092763767        4.4961290378
 H          2.7361463918        4.8459062094        3.6885521930
 O         -2.2214414044       -4.5338736087       -4.3635988308
 H         -3.1812243434       -4.3480637231       -4.4283066564
 H         -1.8470774720       -4.2597628447       -5.2089954597
 O         -4.4291812010       -3.8594870630        5.5826630218
 H         -3.7007893795       -3.2548274175        5.8119149670
 H         -5.2229855833       -3.3190919125        5.6937355144
 O         -5.0630031141       -6.3137185101       -2.7527346404
 H         -5.0275389656       -7.1999272240       -3.1104406322
 H         -4.6294616793       -6.3557718310       -1.8630384594
 O         -1.7935638484        0.5197892681        3.6903644451
 H         -2.5688240006       -0.0610472589        3.6499803692
 H         -1.2001900967        0.2376633925        2.9660173570
 O         -4.5610978240        5.7010000522       -1.6774362962
 H         -4.5398070225        6.1823856256       -0.8402048965
 H         -3.6170066259        5.6796997433       -1.9718153560
 O         -7.5408044749        1.6448530860        3.3573614918
 H         -7.1549718105        2.5187182744        3.1334572227
 H         -7.3940864532        1.5076690700        4.3057060539
 O          5.8364271884        0.8378214817        4.7599394289
 H          5.0221870903        0.6932055190        5.2833756050
 H          5.6598553024        0.3809087419        3.9079442363
 O         10.6055023269        1.3787352672        1.3323957826
 H         10.2206820782        2.2690673149        1.4349755296
 H         11.5321890942        1.4862271838        1.1208080505
 O          7.4056997968        1.9901901068       -4.4976301505
 H          6.7022384758        1.4158112739       -4.1201537427
 H          7.2373635073        1.9268740849       -5.4494735732
 O          1.3590073718        1.6531691356       -4.1397632125
 H          2.2808488676        1.9547172401       -4.0407603688
 H          1.0987033641        1.7541621718       -5.0766579272
 O         -4.8561317520       -3.9769201286       -4.2702367464
 H         -5.3648205786       -3.3044528995       -3.7644711658
 H         -5.0543081997       -4.8186604902       -3.8348454614
 O          9.8053044808        3.6700633712       -1.3775971474
 H         10.5024571605        4.3242842596       -1.3886983119
 H          9.4954993683        3.5932593875       -0.4467354858
 O          9.9990804839       -1.9990096757       -1.1356871005
 H          9.1798682985       -2.4002043877       -1.4834679800
 H         10.1074517247       -1.1761561762       -1.6199264404
 O         -1.8970688668        3.4305389121        6.1499390853
 H         -1.3526756012        2.6429745739        6.2956204978
 H         -2.8102724340        3.1773500595        6.3237103581
 O         -8.2345335045       -2.5156816022        3.7768807633
 H         -7.9649574349       -3.3799340291        3.4264155565
 H         -9.1135848735       -2.3311556996        3.4213881174
 O         -6.7881125247        0.9395251559        5.9262497265
 H         -6.5230847433       -0.0047973878        5.7758861048
 H         -7.2655450728        0.9569057604        6.7546596757
 O          3.4643627001       -2.4280893785        5.4347742588
 H          2.9050660371       -2.2232790289        4.6568569060
 H          4.3269914129       -2.6721635741        5.0724597070
 O          0.0927736769       -1.6168907970        5.5114413209
 H          0.7371773541       -1.4406589075        4.7860253672
 H          0.4193272515       -2.4580110034        5.8924302547
 O         -3.9848215607        4.0982068870        1.7382920728
 H         -3.8278384899        5.0344607250        1.5594154544
 H         -3.3347249909        3.7981449379        2.4117219433
 O        -10.1654206163       -1.7417479212        1.8895925418
 H        -10.9705325961       -1.7686688715        1.3647871658
 H         -9.5167097231       -2.2773272602        1.3633237989
 O          1.9028166810        3.0010000461        1.4164401284
 H          2.3809742694        3.3365273153        2.1958072863
 H          2.4393041722        3.2098905276        0.6418265318
 O          0.5347909700        2.5375344747        3.9513500194
 H          0.3956651022        3.4863146700        4.0962462643
 H          0.4812383908        2.1366222469        4.8259868853
 O         -4.6360356446       -0.6052982612       -0.0416729450
 H         -4.3828657357       -0.8394790344       -0.9573377968
 H         -4.0975455824       -1.1921548319        0.5247854499
 O         -3.2827596521        1.3509342985       -1.9695415370
 H         -3.6697556527        2.1184145346       -1.4957216021
 H         -4.0549630328        0.8635002073       -2.3058433097
 O         -3.1008448079        0.4118443190        7.0421501460
 H         -3.6340408077        1.0250706573        6.5077955327
 H         -2.1744851832        0.6772637541        6.9023695568
 O         -7.8749931698        0.4697297860       -4.8718799380
 H         -6.9752801731        0.3962953551       -5.2246166327
 H         -7.8889314556        1.2597919921       -4.3232939263
 O          0.6947527219        7.0701969436       -2.0370215706
 H          1.1672969623        7.8630008093       -2.2829443744
 H          0.8756527366        6.3899512481       -2.7146149000
 O         -4.4515128752        2.2941912303        5.5078710953
 H         -4.3610942399        2.0152040257        4.5672582890
 H         -5.3308285260        1.9706124406        5.7666486574
 O          1.9144157191        6.3743834150        3.6291186318
 H          1.3026180632        6.0737334302        4.3178748903
 H          1.3064109387        6.6434842030        2.9068175436
 O          2.8995965649        4.4499287946       -5.4686874128
 H          3.7523038986        4.7854859494       -5.1659351941
 H          2.2972375312        4.5630465035       -4.7022314007
 O          4.9979162764        4.7570792815       -3.7442631643
 H          4.6494629058        5.2609467284       -2.9905836495
 H          5.9493719762        4.6940439296       -3.6004967921
 O         -4.6014954417        4.9413868535        4.5888328771
 H         -4.5021707425        4.0689250221        5.0024983930
 H         -5.3921789857        4.8793921366        4.0427785012
 O         -4.3809867852       -5.3249498484        3.3281369179
 H         -5.2840543511       -5.6067126048        3.1697596918
 H         -4.3919804425       -4.7943711924        4.1521677692
 O         -2.0743880984        1.2140502704       -6.3715839137
 H         -1.8940554655        0.5734500696       -5.6616586211
 H         -2.6185305859        1.9099637037       -5.9894200272
 O          7.6368622660       -1.2357685478        4.9644020190
 H          8.1729986398       -0.9246482451        4.2190799027
 H          7.0603392267       -0.4793509100        5.1718891510
 O          5.6175097641        0.2227750708       -3.6037093667
 H          5.5817061105        0.3142609962       -2.6154152148
 H          6.2982345488       -0.4625224909       -3.7978628641
 O         -5.6575738564        0.3959759035       -2.6749401987
 H         -6.4572110810        0.8854640911       -2.4132628339
 H         -5.8644859740       -0.5657684056       -2.6541165700
 O          5.5740965901        4.3993168953        1.3206000357
 H          5.5973957517        3.9828921238        2.2010103256
 H          4.7579695188        4.9504954241        1.2940580290
 O          3.0980464089       -4.9125569150       -2.6166971049
 H          2.2844617415       -5.3266587943       -2.9258635454
 H          3.5598881523       -4.6018784544       -3.4120947886
 O         -5.1550316614       -2.8144440265        1.9269160155
 H         -5.7578652369       -3.5257681682        2.2273289623
 H         -5.6786981059       -1.9929602143        1.9860856900
 O          5.4448622829       -1.9772728814       -5.9163281289
 H          6.2236003670       -1.9551293084       -5.3414346577
 H          4.9664389299       -2.7938457107       -5.6975289558
 O          5.8334188925       -2.9594126457        4.0518614499
 H          6.5714352810       -2.4631994346        4.4758844362
 H          6.1771217679       -3.3326786441        3.2184691691
 O         -3.6264252776       -1.5251764666       -2.3314187907
 H         -3.5376333134       -2.4685871336       -2.1218419250
 H         -3.5796368524       -1.4583639184       -3.2986784516
 O         -6.5194529787        4.0076661196        2.5694516292
 H         -5.5946720075        3.9467619954        2.2374075621
 H         -7.0715650506        4.1521160747        1.7935284538
 O          7.4434967147       -1.6499693135       -3.9374330010
 H          8.1974861472       -1.0374228777       -3.8016874050
 H          7.3845948460       -2.1459607367       -3.0923980906
 O         -8.0996332966        3.1488199596        0.2124462434
 H         -7.4215382703        2.5113401661        0.5254226916
 H         -8.9394990894        2.7970204875        0.5144798297
 O          3.7129971365        3.3240348581       -0.7464309207
 H          3.6899262419        2.9207554437       -1.6290472553
 H          3.9676552245        4.2532870637       -0.8882082031
 O          5.2851731642        0.5365756982       -1.0848642353
 H          4.3154547262        0.6408092878       -0.9690093345
 H          5.6994126187        1.3998869932       -0.8704074112
 O          9.1263369618       -2.5620039949        1.3066809497
 H          9.7933389954       -3.1151829565        1.7128105490
 H          9.4819816274       -2.2996833522        0.4230901551
 O          4.3950698562        1.5783214118        1.3593987797
 H          5.3463111059        1.6125132956        1.5327296567
 H          4.1999536867        2.2481776196        0.6897451553
 O          5.3967406587       -6.0839991077        1.3471613902
 H          5.8875876960       -5.2431531292        1.4360324845
 H          5.0922622932       -6.2714069677        2.2481351396
 O          5.7988547114       -4.1867254171       -3.8227298856
 H          5.8382318752       -4.6818954229       -2.9894443332
 H          6.7027464922       -4.0176008646       -4.0917821267
 O          8.7300767830       -0.2284123156        2.6194492523
 H          9.5285643148        0.2534908359        2.3667611023
 H          8.7579037838       -1.0673112979        2.1192909421
 O         -6.2215058361       -2.2052257735       -2.7907367879
 H         -6.0771566462       -2.5952582446       -1.9063716769
 H         -7.1834979996       -2.0452750029       -2.8963622976
