  86
       -142.08530749
 H          1.3127394636       -0.2468748051       -0.9613619179
 C          0.8998975791        0.5879284713       -0.3861734405
 H          1.0879849403        0.4133590265        0.6759742598
 C         -0.6086208635        0.7106849275       -0.6233654362
 H         -0.8296676222        0.6454385914       -1.6896466547
 H         -0.9347370702        1.6894267433       -0.2638625349
 N         -1.3879701243       -0.3037516333        0.0720146939
 H         -1.2064571636       -1.2188966666       -0.3229819349
 H         -1.1171280847       -0.3236742301        1.0514705473
 O          1.5878901176        1.7908514599       -0.7004075701
 H          1.3540567682        2.0451437790       -1.6208180497
 O         -0.6988076756       -1.6668457764       -3.3617251680
 H         -1.6003674073       -1.2955461461       -3.1618661651
 H         -0.8211092466       -2.2599923564       -4.1039394604
 O          1.6348022145       -0.1776974274        2.9457149254
 H          1.2193616209       -0.9034489376        2.4398047796
 H          2.5947068784       -0.3556580622        2.8208045114
 O          4.1038023723        0.7470124793       -0.1446244714
 H          3.2871238418        1.2600956063       -0.2546549163
 H          4.1087282919        0.1367175101       -0.9003889518
 O         -1.7199068970        4.5431339143       -0.1696348385
 H         -0.8592535123        4.4253893828        0.2588709168
 H         -2.3633598287        4.2020790979        0.4580212857
 O         -2.1021332031       -3.8479892651       -0.0274657218
 H         -2.8710936829       -3.4339585342       -0.4562158956
 H         -2.1062748211       -3.5183457193        0.8817462701
 O          2.9125468414       -3.2013750612       -0.8911895684
 H          3.2298572864       -2.4042967720       -1.3450612799
 H          1.9518950653       -3.2135707103       -1.0204837613
 O         -3.8398578443        1.6988961434       -2.0295406089
 H         -4.7078676391        2.0360313926       -2.2507816896
 H         -3.8425618234        1.5104427390       -1.0550881521
 O         -4.2717079542       -2.3911820838       -0.8484675374
 H         -4.3296130228       -2.0048203906        0.0669232381
 H         -5.1274180678       -2.7772047647       -1.0353221617
 O         -4.2657880907       -1.4228872551        1.5946063896
 H         -4.1803984875       -0.4711042946        1.3941998586
 H         -3.4345014758       -1.7004099486        1.9990857055
 O          0.7161546525        2.4672153658       -3.1632035477
 H          1.1240769353        3.1887973610       -3.6428544048
 H         -0.2225709329        2.7564354115       -2.9861727619
 O         -3.6478670043        0.9984925317        0.5008105742
 H         -3.2516150098        1.6718880397        1.0878797186
 H         -2.8675681997        0.4292483959        0.2506171693
 O          3.0727456398       -3.2235882223        1.8093156041
 H          3.6133410283       -2.4544416719        2.0393928895
 H          3.1812199996       -3.3457595389        0.8428166670
 O          2.0700903881        2.4710351750        3.1581795251
 H          1.8445548321        1.5215784453        3.0578171123
 H          2.0217857823        2.6626252134        4.0953642740
 O          1.5608349311       -0.1163805712       -3.7501913397
 H          1.2675871251        0.8001168857       -3.6254609106
 H          0.7690365862       -0.6669416975       -3.6283515631
 O          0.6641440749       -2.2864305499        1.5784533172
 H          1.5218732712       -2.7634418125        1.7690935591
 H          0.5457255366       -2.3826678717        0.6163429624
 O         -1.1840994916        0.1247730952        3.2211960376
 H         -1.4937953774       -0.7908367078        3.2152903860
 H         -0.2335338928        0.0963691906        3.3853126502
 O          0.4401940861        3.4466353500        1.1871400148
 H          1.0210665804        3.3217334112        1.9553513715
 H          0.8726333169        2.9412071859        0.4743736160
 O         -1.7419102582       -2.5931322736        2.5676361718
 H         -0.8093306048       -2.5417082707        2.2263447906
 H         -1.7472447589       -3.2798830792        3.2355138063
 O          4.1580148608       -0.6324815200        2.1878394920
 H          4.6649068073        0.0430729463        2.6638652847
 H          4.1246998500       -0.2753567137        1.2733572934
 O          3.6432271780       -0.9077181705       -2.3119171748
 H          4.3324374996       -1.1135872985       -2.9440711994
 H          2.8664374686       -0.6026594732       -2.8447251025
 O          4.7955926136        2.0125606897        2.4928616324
 H          4.8589629253        1.9404381002        1.5346158659
 H          3.8979528378        2.3295401915        2.6768515938
 O         -2.0318663093        2.5098360560        2.0596083435
 H         -1.1600407267        2.8540156660        1.7899076619
 H         -1.8342132221        1.7488107269        2.6255604401
 O         -3.1224763750       -0.8437761023       -2.8376473759
 H         -3.5195277981       -1.3796548172       -2.1302535247
 H         -3.3272957865        0.0826930009       -2.6243628757
 O          0.1431872531       -2.8082791452       -1.0448307912
 H         -0.0907318672       -2.4195224581       -1.9084849851
 H         -0.6139629096       -3.3750692827       -0.7845063289
 O         -1.6804035676        3.3372716097       -2.6180589268
 H         -2.4215128049        2.7173375348       -2.5204716835
 H         -1.6800437167        3.8707965736       -1.7995942926
