91
 energy: -147.742507456429 gnorm: 0.000357126332 xtb: 6.5.1 (579679a)
C           -0.55058620977908       -0.63509328886412        0.83421867395511
C           -1.62795543012602        0.09493350046401       -1.23712028174656
C           -0.81078551430034       -0.24894609484850       -2.47512197924774
C            0.82554044483768       -0.43557626622460        0.38451006713165
H           -0.63647437201788       -1.52991760509288        1.45340042981355
H           -2.68504786120582        0.15308014012450       -1.50163024887420
H           -1.24630657765173       -1.09632071293092       -2.99665670856020
H            1.44914458681389       -1.24593967150843        0.06320012617055
H           -0.89278176236739        0.24670866338607        1.38970533493165
H           -1.31242077066831        1.05645466081419       -0.82827523442350
H           -0.79615575178408        0.60224943664659       -3.14847155092141
H            0.20846151363797       -0.49528945352653       -2.19627231785247
O           -1.53797846758390       -0.89398321487070       -0.21565222755125
N            1.33953838475384        0.85576904518015        0.27654698193570
H            2.33638390173744        0.90538687564882        0.45103139918210
H            0.84233439416677        1.53003608107581        0.84769102970828
O            1.00627911360784       -4.31442028110486        0.47338909932273
H            0.61319816073163       -4.02369483663741        1.31128163543777
H            0.35670220402199       -4.07730419503341       -0.20906377016667
O           -3.58305379988554       -0.98231568117182        1.73287598230950
H           -2.96299237792994       -0.84894743188563        0.99697724180648
H           -3.17262443028005       -0.55386153325761        2.50373818125712
O           -0.77358999611146       -3.25388065460496       -1.38418492323136
H           -0.94663010423019       -2.39652463146754       -0.94536254815538
H           -1.66165751870695       -3.61260606495319       -1.51599273379640
O           -3.52509899382131       -3.47772436651393       -1.12707367594908
H           -4.22327796826377       -4.09673149307850       -1.34365599068005
H           -3.96794500874098       -2.60091870439427       -1.05312046961881
O           -3.07358525188593        3.43612215367906       -2.56496548895665
H           -2.99729489250948        3.69268433723728       -3.48381261014874
H           -2.19093933570042        3.54046878141800       -2.17383288109453
O            1.42649478133600       -2.65110208421799       -2.90058571424370
H            0.60899151750041       -2.86694693381839       -2.40585339399136
H            1.56624485392884       -3.36967967993097       -3.51821887162810
O           -0.47326595451658       -3.53973106200141        2.69653455926616
H           -0.44649096783984       -4.25965806530312        3.32822201290489
H           -1.37637001327460       -3.58090068700399        2.28077447115291
O            4.19764673800727        0.96039491501735        0.96383193622991
H            5.01827714489877        1.05396337928897        1.44831127237953
H            4.37244056738317        0.28342481027956        0.24476406200062
O            1.18106678634981        2.86139623254494        2.64136144498225
H            1.50254488325385        3.43515462970312        3.33807976412754
H            0.19744239267782        2.77637348579571        2.79996348038044
O           -2.53704184324821        2.94574112361822        0.54818813423973
H           -1.82323024953829        3.10194900571280       -0.10687645327562
H           -3.09032849854876        3.72826255619780        0.51459497753606
O           -4.95397388906150       -1.23238564505596       -0.70007056273278
H           -4.87683163614079       -1.19110688912869        0.26183508405231
H           -4.88788892072156       -0.30718237406873       -0.98810056248306
O            4.54926349662026       -0.72636316929189       -0.97507136584470
H            3.97964156136542       -0.49830159309400       -1.74021959662804
H            4.20173125600322       -1.59090062543393       -0.68647327533624
O           -2.87103311239932       -3.59081930840623        1.60357807813095
H           -3.25002291846350       -2.70934017549444        1.79375118690464
H           -2.96732681098869       -3.69195689248189        0.64211699356946
O            3.05128244583635       -2.91207845076177       -0.61017626023507
H            2.60755207076290       -2.85200032221325       -1.46979429798137
H            2.47273094121308       -3.48808172866832       -0.07387793999513
O            1.42483715591309        4.32272022393197        0.27615841247810
H            2.25224781001053        4.06187220111004       -0.15110248477984
H            1.39116891812481        3.83858993306721        1.11866783096705
O           -2.13176543624882        0.12778259014934        3.80883013819328
H           -1.27172546089901       -0.37181507005181        3.90758514723360
H           -2.54821526354165        0.10278600097124        4.67095894391460
O            3.65462004961417        2.98690603984110       -0.89598041335067
H            4.28667879034768        2.71691825537588       -1.59018360155031
H            3.84430315693710        2.39215739821266       -0.14984160234434
O            0.10147723584719       -1.18981819839172        4.08493660651056
H            0.03602815863623       -2.02292093186121        3.58912931109111
H            0.90387800858476       -0.73431660003007        3.77726425510187
O            1.46579615242753        1.95975990980788       -2.17697617101426
H            1.29336208675457        1.45270528669289       -1.34811759192993
H            2.22244805479610        2.52535172186190       -1.93280396706631
O            2.23820903800354        0.32707581538063        3.15648014493116
H            1.87546807662474        1.21960075978860        3.02715746940473
H            2.94860129193082        0.24229953812890        2.51153042154396
O           -0.59613585407611        3.50201562142213       -1.26909441660383
H            0.03923787628077        3.99465922305865       -0.70264873599432
H           -0.01242764501204        2.92969916772516       -1.80314996796906
O           -1.38158433806743        2.62005722207636        2.99908237215996
H           -1.84817338158967        2.74675339813365        2.15196638483656
H           -1.66722413891177        1.74869395217222        3.33380681893600
O           -4.46886802670268        1.51194892515395       -1.02541117989584
H           -4.20349458642518        2.12066585994166       -1.72862009373203
H           -3.94624620656339        1.78995859470677       -0.26086382880242
O            2.91684059683054       -0.15928292673819       -3.08590019494635
H            2.29928450670099        0.57967703218412       -2.91069045167688
H            2.38222626946423       -0.96150038194707       -3.15398332466701
O            5.16815830174386        1.59750473220539       -2.68690668978596
H            4.49814103368865        1.13564889436126       -3.20631310870025
H            5.58472208797111        0.91394224204654       -2.15235315753850
