  114
       -193.43190373
 O          2.6742794896       -0.4269341114       -0.1273111315
 H          1.8837776530        0.1437379040       -0.2298039515
 H          2.4789869194       -1.0570014988        0.6016579337
 O          4.5818010260        0.9673250111        0.9977564734
 H          3.8896279271        0.4280024032        0.5211689364
 H          4.1007449578        1.7765561177        1.2355199585
 O          4.1144654277       -0.3847315671        3.2714173558
 H          4.4337733988        0.1252051712        2.4926687831
 H          4.7859173840       -0.3203911320        3.9492304435
 O          0.6851676172       -2.6190211931       -2.7632287436
 H          0.7117803500       -3.0049472864       -1.8653292710
 H         -0.1633230669       -2.9119356161       -3.1424710342
 O         -5.1395255588        0.8769603552       -0.0308069274
 H         -5.3975239219       -0.0446121541        0.1575975226
 H         -4.7881944634        0.8280064664       -0.9371491548
 O          5.5561252811       -0.6749113520       -2.6377084256
 H          5.9922220731       -0.9572190947       -3.4412114828
 H          4.7067354179       -1.1702721513       -2.5848303925
 O         -2.1095310025       -4.4237855349        1.7573220997
 H         -2.0626707926       -5.3531361974        1.9809490276
 H         -1.2537795547       -4.0357380640        2.0075334097
 O          5.1353069275        1.8406040084       -1.5746374570
 H          5.2853739372        1.0216095951       -2.0741518144
 H          5.1835100793        1.5872013124       -0.6373341425
 O          0.1982537475        0.0147849110       -2.9689623190
 H          0.4742682498       -0.9241425579       -2.9486662264
 H          0.2270232200        0.3250952210       -2.0400995596
 O          0.4421299170        0.9431348074       -0.4642967896
 H         -0.1147966068        0.5549318319        0.2379950526
 H          0.1789253420        1.8823895256       -0.5309475191
 O          3.2953536976       -1.9886719635       -2.1898464574
 H          3.0000956306       -1.3663514141       -1.4850621009
 H          2.4895024017       -2.2610597972       -2.6511011953
 O          2.7438241607       -2.2756293429        1.8158709848
 H          3.2811150156       -1.7977632020        2.4637053930
 H          3.3651606090       -2.7824266626        1.2395244207
 O         -4.4405474119        1.2208893080        2.7311431198
 H         -4.7657657516        1.1546969125        1.8207339742
 H         -3.6190202766        1.7424926120        2.7000485369
 O          1.5000758056        0.5609184936        2.4593742928
 H          2.2550556939        0.1687758162        2.9116604949
 H          1.8444525947        1.3378840227        1.9750145179
 O          0.2387637703       -3.1465549582        2.3671586623
 H          1.1673634812       -2.8548918576        2.3344450701
 H         -0.2204463897       -2.4719375102        2.8958386713
 O         -3.9167925927       -1.0134594123        4.0193624516
 H         -4.3446398840       -0.9424396686        4.8725470472
 H         -4.1458187499       -0.1825717043        3.5257958032
 O         -1.2274387561       -1.2394339872        3.6418044955
 H         -2.1741684102       -1.2655656836        3.8636375732
 H         -0.8666006424       -0.4302329520        4.0744451872
 O         -0.6543670287        4.0307924740       -3.3285415681
 H          0.0398533663        3.3393933860       -3.5748436777
 H         -0.3668992933        4.8478847888       -3.7352682074
 O         -0.3249615688        1.1562538398        4.3298304714
 H          0.3932899629        1.0257871358        3.6709052786
 H         -0.9397566809        1.7782069840        3.9289442812
 O          1.2475251609        2.3539190157       -3.7767064252
 H          1.8100712397        2.5055713019       -2.9937798893
 H          0.8915740837        1.4512502728       -3.6608612434
 O          0.2973457526        4.0990770486        1.7716532114
 H         -0.0056820689        4.0554222153        0.8491284163
 H         -0.3709942494        3.6077433154        2.2693220715
 O         -3.6971854805        0.8522940460       -2.3681275821
 H         -3.5642115505        1.7904873788       -2.5643940230
 H         -3.2308158262        0.3744173004       -3.0888497916
 O          0.9868306550       -3.6690381231       -0.2926333377
 H          1.9023737978       -3.9000740896       -0.1171698655
 H          0.5898755898       -3.4634520771        0.5677068987
 O         -2.1995964348       -0.4397039574       -4.1732269993
 H         -1.3263553764       -0.1777325965       -3.8214554546
 H         -2.1954599019       -1.4051184167       -4.1488998060
 O         -4.4903998600       -3.1150302733        2.3139534277
 H         -4.2619923522       -2.4452594223        2.9797901687
 H         -3.6618199255       -3.5727710719        2.0890955163
 O         -0.6673987977        3.3786549325       -0.6789319429
 H         -1.6089279590        3.2102250540       -0.5021850667
 H         -0.6166293413        3.6908171030       -1.5989864249
 O          2.5178151876        2.7270616718        1.1803366048
 H          2.4439878095        2.7482285638        0.2082602325
 H          1.8188454615        3.3311675273        1.5090628494
 O         -3.2961560889        3.5965862514       -2.8630141048
 H         -2.3500096305        3.7119355271       -3.0826118377
 H         -3.7937621422        3.8672969383       -3.6348596514
 O         -1.8970390452       -3.2009648074       -3.4420441820
 H         -2.3214053018       -2.8714769044       -2.5949541540
 H         -2.2303228255       -4.0850418906       -3.5915299750
 O         -1.9790009037        2.4434213444        2.2691253210
 H         -1.6754623694        1.5913697560        1.8863785025
 H         -2.4057734292        2.9188279787        1.5427916276
 O         -3.3556188502        3.0769617378       -0.0920809838
 H         -3.9961167967        2.3556131306        0.0170569070
 H         -3.5584409885        3.4616046262       -0.9551479725
 O          6.1444259076       -1.3191603580        0.0292167916
 H          6.1035341966       -1.0976342878       -0.9149044009
 H          5.8185376406       -0.5413949103        0.4934902191
 O          4.3135534523       -3.3532181825       -0.0170121182
 H          3.9533347465       -3.0708769498       -0.8770371281
 H          5.0999266469       -2.7867241109        0.1026523344
 O         -5.6532087553       -1.7952641939        0.3400415198
 H         -5.2272735902       -2.2971636576        1.0795952551
 H         -6.5755888316       -2.0502294666        0.3485555026
 O          2.7621127485        2.9688055394       -1.5652942502
 H          2.9595637898        3.9018453246       -1.6565041219
 H          3.6354382666        2.5023401961       -1.6447154446
 O         -1.4418051026       -0.0646728159        1.1836295468
 H         -1.2889554408       -0.5796935891        2.0038748805
 H         -1.9045970446       -0.6513637316        0.5611358170
 O         -2.8265969603       -1.5186932752       -0.8628718906
 H         -3.6603454144       -1.8295316809       -0.4927894779
 H         -3.0419367258       -0.7127888229       -1.3555464154
 O         -1.3992980193       -4.9701882810       -1.0115331168
 H         -0.4730045489       -4.7111853890       -0.9227626618
 H         -1.8122249233       -4.7072123298       -0.1785532976
