  534
       -906.58166928
 O          4.2224076838        2.2301039192        5.0912518437
 H          5.0986394213        2.4873508688        5.4196659361
 H          3.5666547376        2.3528818269        5.8111953806
 O         -0.4693414167        0.5980175452        4.0431646014
 H         -1.1211772618        1.3178874610        3.9281253661
 H          0.3400044488        0.8551325851        3.5551691832
 O         -0.9164184233       -4.4623853209       -3.5937254395
 H         -0.2596497318       -3.7322167059       -3.6002694573
 H         -1.0968026841       -4.6407815608       -2.6549356162
 O         -2.3255967711       -0.4932092438       -4.2060874601
 H         -2.3554014839        0.2529705113       -3.5571029868
 H         -2.8688553005       -0.1991814074       -4.9620286012
 O          0.0693049650       -0.6588329573       -5.3682834046
 H         -0.1020854514       -1.4503954700       -5.9116091005
 H         -0.7739989306       -0.5010685884       -4.9003298079
 O          2.2072368115       -1.2965919578        5.8745909629
 H          1.5171034495       -1.8078313571        5.4189804390
 H          1.7321984210       -0.5587537667        6.2918759357
 O          1.8060556309       -1.3299607440        0.1237362874
 H          2.5748540009       -1.1051148894        0.6869117912
 H          1.3790746120       -2.0717927463        0.5711769364
 O         -3.2213237725       -4.4645773191        0.9108282028
 H         -2.8950940846       -4.9958185860        1.6656232840
 H         -3.5673310055       -3.6417673425        1.3121405939
 O          1.7603834016       -3.9816240395       -1.5776370972
 H          1.5623974318       -4.8993059590       -1.8347351884
 H          1.4296228831       -3.8748400519       -0.6702123786
 O          4.0809901874       -3.1989457086        6.7066958612
 H          4.9141136162       -2.7167645329        6.6311376250
 H          3.3912631575       -2.5428351862        6.5196529684
 O          6.5290498943       -3.8933714969       -1.7940933721
 H          6.5088292487       -4.1373822262       -2.7522904760
 H          7.1272357153       -3.1258673263       -1.7426978820
 O          5.4838794231       -0.6091775117       -1.7925814231
 H          4.8702739933       -1.3638154236       -1.7521286249
 H          5.4512547679       -0.2639828049       -2.7023033461
 O          1.8674420792        2.9474607156       -6.1553902429
 H          2.0408625672        2.1969478796       -5.5316042472
 H          2.7463105984        3.2272744793       -6.4453026851
 O          1.6945393911        1.3763061267        0.1696411472
 H          2.5780434060        1.4917257173       -0.2381310564
 H          1.5232805443        0.4218336675        0.0709612448
 O          4.2532733072        1.3552443128       -0.5404973971
 H          4.2852741522        0.9546537388        0.3477782730
 H          4.7162045041        0.7000492978       -1.1101010883
 O          2.3344646169        2.4356430793        7.0010653780
 H          1.8286509761        3.2528154505        7.0411679805
 H          1.6741425871        1.7337735816        6.8986916451
 O          1.4065676502        4.3121995353       -1.2736809366
 H          1.7331736979        3.4373792625       -1.5585584695
 H          1.9254343225        4.9526901636       -1.8121100426
 O          1.7421140687        3.3827782635        4.2396702200
 H          2.4384605082        4.0496244931        4.1010146900
 H          2.0465070884        2.5280005623        3.8949027896
 O         -4.2323183209       -2.3451371818        2.2172295116
 H         -3.7864987810       -1.9094418294        2.9604702993
 H         -5.1456235663       -2.5955290724        2.4922591279
 O          9.7882532528        0.9550968519       -2.3430361636
 H          9.7773129318        1.8838042815       -2.6031232741
 H          9.1224682992        0.8833713367       -1.6204248423
 O         -3.8364826324        0.2778843658       -6.2935348461
 H         -4.2902231660       -0.5602341019       -6.4885602708
 H         -4.4662853754        0.8402043671       -5.7812069393
 O         -6.9706485980        2.0991690318       -2.0247985139
 H         -7.3482629644        1.5825528774       -2.7607423994
 H         -6.9997606500        3.0314205276       -2.3099321479
 O         -2.7285997222       -3.1029696666       -4.8708130632
 H         -2.6581528679       -2.2326255309       -4.4401115207
 H         -2.1124649741       -3.6876718715       -4.3538841830
 O         -6.5497740170       -5.3587040130        1.4086792324
 H         -7.4243199224       -5.1937493517        1.7936199561
 H         -6.3684798880       -4.5644721889        0.8728580527
 O         -5.1581102944        1.8413718983       -4.6401829479
 H         -4.4983730231        2.5284278816       -4.4020898948
 H         -5.9668438356        2.3253957099       -4.9177292604
 O         -2.5861343603        2.2310923369        4.0443885889
 H         -2.3931989011        2.4765943165        4.9676849433
 H         -2.5049183027        3.0275398459        3.4983062396
 O          1.8604176871        1.0381954652        2.8771395834
 H          1.8499557783        1.2186324325        1.9203462270
 H          2.0209781234        0.0772823276        2.9543453567
 O         -0.4988689716        3.5371150716        2.8539322760
 H         -0.4204407912        4.0722037411        2.0489092705
 H          0.3807518289        3.5135212329        3.2783938752
 O         -4.5022560967       -5.3149243992       -4.5568707442
 H         -3.8872552078       -4.5751321152       -4.6566854476
 H         -4.0443131317       -5.9567979906       -3.9910565395
 O          2.5236346852        0.7936175252       -4.7894902621
 H          3.4337936683        0.7890402601       -4.4473180003
 H          2.4872504553        0.0969213652       -5.4635058884
 O          0.1571130486        0.1082585448       -2.4716748322
 H          0.0545349195        0.8248330334       -3.1292029771
 H         -0.3880229862       -0.6347263319       -2.7393636444
 O          2.4110299519        3.8688215115        1.3274320194
 H          3.0843617612        3.3463340584        1.7957249532
 H          1.7975207647        3.2294618543        0.9509526734
 O         -8.5656269550        0.9593967247       -3.9404215854
 H         -8.6283459389        0.0019674357       -4.0604160224
 H         -9.4435037424        1.2414365991       -3.6326620879
 O          5.1509665293        0.7598410189       -4.0306845923
 H          5.3728222756        0.6452425424       -4.9717036203
 H          5.7568290812        1.4312624381       -3.6724824400
 O          2.6762472537       -0.7941053568       -7.0303565615
 H          1.9583754402       -0.4913599808       -7.5914504302
 H          2.5100167527       -1.7398284087       -6.8271338980
 O         -3.2299371036       -1.3655243693       -1.5624474715
 H         -2.2968624609       -1.4182256057       -1.8173312045
 H         -3.7550864318       -0.9483322903       -2.2667545090
 O         -7.6187930584       -1.0006933499       -1.6808091996
 H         -8.0868051060       -1.3885387766       -2.4463594105
 H         -6.7457476716       -0.7121400112       -1.9942935892
 O         -5.4294886921        3.1556768787        2.2215527222
 H         -5.0322790186        2.2529874054        2.2119818080
 H         -5.4486228480        3.4150678861        1.2877533022
 O          3.9416309266       -0.3340264482        1.4795017099
 H          3.9649461933       -0.2307437866        2.4430004787
 H          4.7235274073       -0.8661034866        1.2336178774
 O         -9.1095325518       -4.6845823714        2.3181085840
 H         -9.6078343799       -5.3311134263        2.8155603377
 H         -9.2334965987       -3.8222435272        2.7840764477
 O         -4.4776133615        1.5511077968       -0.9951558736
 H         -4.3115719309        2.4293503200       -0.6224079951
 H         -5.3220410878        1.6137579364       -1.4682605999
 O          0.0663570001       -2.6057176513        4.7617408116
 H         -0.5183131973       -2.7266474352        3.9644708445
 H          0.2534736511       -3.5055745569        5.0921467759
 O          4.1123715837       -0.3133528175        4.2956017681
 H          4.1684399614        0.6242943689        4.5700303016
 H          3.3447667472       -0.6892771684        4.7797456277
 O         -5.5469623068        4.0517455659       -0.3180295325
 H         -5.1201941441        4.4727039014       -1.0873629240
 H         -6.5046475621        4.2359474007       -0.3621223319
 O          1.2422952749       -5.6200493876       -4.9328628425
 H          0.3843649226       -5.3003132212       -4.6034601358
 H          1.4616612731       -5.0524107366       -5.6873937578
 O         -4.0643391919        0.8833335099        2.2185088295
 H         -4.6925870705        0.2895348879        2.6699967502
 H         -3.4908897979        1.2442654070        2.9133745747
 O          0.3093334896        0.5414115455        6.5277828332
 H         -0.2296574793       -0.1966440905        6.8773334749
 H          0.0809342394        0.5650087284        5.5548481075
 O         -5.2572146906       -0.3320337795       -3.0513472552
 H         -5.2120067783        0.5283011872       -3.5066645370
 H         -5.6137338535       -0.9435556728       -3.7133104331
 O         -2.7655988028       -0.9189866923        4.1269073716
 H         -3.1234278250       -0.3063954349        4.7875425036
 H         -1.8713130080       -0.6067838747        3.9331962784
 O          1.9537059588       -1.6361868579        2.9188254676
 H          1.3512165425       -2.1403125093        3.4785500111
 H          2.5456325771       -2.2742562693        2.4963318246
 O          6.1421273734       -1.3356321082        5.9113105264
 H          5.4078396915       -0.9618698734        5.3954323682
 H          6.8897014954       -0.7584852146        5.7151600837
 O          0.4644894743       -6.4822718088        1.0713163463
 H          0.2768798698       -6.6238867106        2.0123621326
 H         -0.0152139710       -7.1422534839        0.5630116876
 O         -0.6550529790       -2.2623597632       -1.6415204633
 H          0.1518865079       -2.0214660264       -1.1794814702
 H         -0.8910013266       -3.1383114287       -1.3007920851
 O         -0.8831032837       -2.6957417433       -6.8585696828
 H         -1.2727339757       -2.0415936593       -7.4730446061
 H         -1.5823944804       -2.9510488309       -6.2282860978
 O         -6.3195942723       -3.3945679097       -0.4943760554
 H         -6.2785461599       -3.5438522741       -1.4582978556
 H         -5.9543997441       -2.5034942489       -0.3104022606
 O          9.0191755066        3.6201427919       -2.3561154995
 H          9.4041034089        3.4646966815       -1.4736083043
 H          8.7712199079        4.5652123063       -2.3466027248
 O          4.4719668129        2.4700701886        2.4167107167
 H          4.2970813446        2.4359594223        3.3725679681
 H          5.1636216482        1.7924250188        2.2703420154
 O         -2.8480095986        3.8275569412       -0.4533882149
 H         -2.0222285324        3.3344184498       -0.5826172683
 H         -2.7255646186        4.6944660225       -0.8565624642
 O         -5.8036991094       -0.2871327816        3.8375938503
 H         -5.6761577539        0.5599442205        4.3124163088
 H         -5.5155951400       -0.9901497457        4.4542026841
 O          3.9527222412       -6.3325562262       -1.7079161586
 H          3.9792524738       -5.6561920710       -2.4103110263
 H          4.8824277982       -6.5002885772       -1.4427735943
 O          0.1900664451        4.4102842587        6.2323952440
 H          0.7385671275        4.0027235691        5.5375191568
 H         -0.4407357997        4.9673709024        5.7421945340
 O          2.3426686181        2.1791246862       -2.5272397918
 H          2.6655917931        1.2703391412       -2.3799541885
 H          1.6677009645        2.1031282157       -3.2188316616
 O         -3.6051861519        0.4497803887        6.3594833827
 H         -2.9579332858        1.0969837535        6.6694946647
 H         -4.3373992233        1.0002072312        6.0201858943
 O         -8.0225764559        2.4126472393        4.9731580116
 H         -8.2006223737        2.9033249904        4.1560392233
 H         -8.3058763213        1.4968864190        4.7925192512
 O        -11.2838730818       -1.0473481121       -2.6458802164
 H        -11.3670870552       -0.0866832979       -2.6974397184
 H        -11.0332668827       -1.2570361972       -1.7260475760
 O         -7.2401692218        4.7016150535       -2.7361172911
 H         -7.7181820858        5.0459456683       -1.9717839247
 H         -6.3671952235        5.1274069943       -2.7495723897
 O          4.1709351414       -2.8664739341       -1.2616742550
 H          3.4069447910       -3.3830595559       -1.5768395446
 H          4.9932334839       -3.3691873208       -1.4629072211
 O          2.6968127742        5.7026291553       -3.1397083444
 H          3.3011191389        4.9707106047       -3.3753190609
 H          2.0017111174        5.6521410385       -3.8357789759
 O          3.4117438967        5.5107045964        4.1061774625
 H          3.6458325717        5.8013349334        4.9867703378
 H          2.8257015620        6.2269836554        3.7279340420
 O         -5.1700609737       -5.2986853216        3.7075630817
 H         -5.8481023586       -4.9985764057        4.3208571452
 H         -5.6029981825       -5.2786221712        2.8225892772
 O         -1.1905993148       -4.7706023650       -0.8136705631
 H         -1.9755586944       -4.5935666054       -0.2556230024
 H         -1.0505931580       -5.7318930481       -0.7965732822
 O          3.6447991369       -3.1851780587        1.2930408012
 H          3.9004770374       -2.9529906717        0.3720844672
 H          3.3948936481       -4.1256710465        1.2461941911
 O          5.3612678532       -5.8367804587        2.1342418114
 H          5.1132253124       -5.6817610403        3.0556475922
 H          4.5130192365       -5.9015457601        1.6538192482
 O         -4.9425454142       -2.0314107836        5.6839048281
 H         -4.5292128105       -1.4006832040        6.2814889231
 H         -4.2200561770       -2.5812263178        5.2954463627
 O         -1.3642408042       -1.5369547202        6.7481071176
 H         -2.1643197745       -1.0964950251        6.4429306120
 H         -0.9169899103       -1.8989849746        5.9448884111
 O         -2.6524876847       -6.2289742033        2.8462769865
 H         -3.5021540592       -6.2108811969        3.3041238772
 H         -2.6714360024       -7.0038693941        2.2378658440
 O         -5.4095918861        2.0268437715        5.1295350328
 H         -6.3622804303        2.2681718888        5.1922473522
 H         -4.9380241331        2.8228340045        4.8361468353
 O         -1.9834644940       -4.2201899001        6.9837658777
 H         -1.8001976262       -3.2927579693        7.2076968815
 H         -2.4868839879       -4.1762770469        6.1468043580
 O         -6.7367037108       -2.8935073257        2.6027378119
 H         -7.0673607236       -3.1002630852        3.4878428736
 H         -7.3201314657       -2.2411727742        2.1799956878
 O         -2.7838375805       -8.0682893260        0.9383051354
 H         -3.5619942783       -7.6540518500        0.5123811281
 H         -2.0981812892       -8.0740651645        0.2599743521
 O          5.2213870848       -2.5569795401        3.2552002181
 H          4.7262743765       -2.7764414256        2.4291416218
 H          4.8186247973       -1.7549493937        3.6191322872
 O         -3.1764945142       -3.7208254476        4.6027269679
 H         -3.8446264970       -4.3194454699        4.2163542322
 H         -2.5690664809       -3.4770895480        3.8814569395
 O          7.0368714469       -3.9380509776        1.2861815307
 H          6.3836582484       -4.6040325729        1.5973276123
 H          7.5080538481       -3.6437434575        2.0767392463
 O          6.2367517221       -1.6669767988       -5.2577549663
 H          6.0515940737       -1.2357424768       -6.0964859006
 H          6.9731425152       -1.1676044326       -4.8620279403
 O          4.2655535106        3.5527136111       -3.6777454126
 H          3.5820001814        2.9624609302       -3.2852046816
 H          5.1072775024        3.2997913484       -3.2478336898
 O          7.9595357417        0.6661152257       -0.4047024152
 H          7.5232498414        1.4789216737       -0.1065466842
 H          8.3242767375        0.2161174310        0.3794320086
 O          8.0876992667        6.1187131122       -1.9530311874
 H          8.2209223037        6.0713640264       -0.9959558276
 H          7.1269612576        6.1350102663       -2.0743180576
 O          1.8273055698       -4.4222266087        3.2812676525
 H          2.6918308353       -4.5944626125        3.7076584827
 H          1.2612130564       -5.1808079469        3.4758144946
 O         -7.1398490615       -3.6018379374        5.2109504194
 H         -7.9704931468       -3.1997172430        5.4705399481
 H         -6.4219031324       -3.0390234174        5.5502689933
 O         -0.9729281776       -7.4673434331       -1.1663396980
 H         -1.7105943198       -7.2975758471       -1.7917071208
 H         -0.1489301840       -7.3554062964       -1.6715109196
 O          1.0504376481       -2.6999513901       -3.8488511083
 H          1.0777031072       -1.7422715763       -3.9685128956
 H          1.4811061683       -2.9430288012       -3.0109920561
 O         -5.3004648693       -1.0026436976        0.2081212277
 H         -4.6177086439       -0.7162821992       -0.4095234574
 H         -4.8377866688       -1.4028017096        0.9761298439
 O         -0.8232945799        4.4493882578       -2.6639309060
 H         -0.0274655076        4.4425175769       -2.0777023840
 H         -1.3146991201        5.2456974448       -2.4519075325
 O          7.8277459344       -2.4279287546        3.4764688363
 H          8.0438297564       -2.3575594676        4.4065174861
 H          6.8420178397       -2.3982619091        3.4312745570
 O          6.5090582707        2.6274315544       -2.5244626096
 H          6.4335472739        2.5875640857       -1.5566571684
 H          7.4249252036        2.9274385051       -2.6788088398
 O         -3.0733490149        4.3966403995        2.1697986685
 H         -3.9674860658        4.0801490632        2.4034492031
 H         -2.9161661732        4.0669108666        1.2630131279
 O         -4.6486910710       -6.4705538455       -0.1723186711
 H         -4.1492248770       -5.6909332382        0.1598152166
 H         -5.5030199347       -6.4081692082        0.2739641292
 O         -1.8251090245        2.3102225249       -6.0878895498
 H         -2.5580405179        1.6993480401       -6.2209798671
 H         -1.1232845197        2.0286104240       -6.7117437442
 O          0.7798196055        5.1344067329       -4.8690110664
 H          1.0839447268        4.3432555414       -5.3535333097
 H          0.0902837606        4.8390488450       -4.2550169766
 O          9.1656006080       -4.8827556215       -0.1107847977
 H          8.8715132548       -5.5109748371       -0.7725212485
 H          8.3589689395       -4.5912292857        0.3589640540
 O         -5.8346557032        6.4518088145        1.0752076070
 H         -6.0510610255        6.2511540704        2.0135726489
 H         -5.5343046696        5.6089439854        0.6962401247
 O          2.6808150910       -0.5186236943       -2.2715740439
 H          2.6867503891       -1.0064696150       -1.4353293649
 H          1.7290896039       -0.3259272697       -2.4334027575
 O         -9.7518277772        1.1235256143        1.8470853424
 H         -9.5397245499        1.0361609037        0.8975401642
 H        -10.5088515494        0.5426656335        2.0106135338
 O          3.6136017889       -4.5812502322       -3.7607923398
 H          3.5681141147       -3.6109851456       -3.9418116724
 H          2.8548782226       -4.9758534084       -4.2126379883
 O          8.3647419049        5.2290515336        0.6842225261
 H          9.1707381321        4.7060137710        0.5273988681
 H          8.2907443087        5.3490462153        1.6351888428
 O          3.6576764406       -1.9996630393       -4.3024994565
 H          3.4060462539       -1.3860259781       -3.5861003685
 H          4.5604459034       -1.7887323367       -4.5791261073
 O          1.9381418867        7.4032156254        3.1038937874
 H          2.0961771471        7.2796779040        2.1443273597
 H          0.9748850708        7.3958899069        3.1894638236
 O          0.4154039925        7.0976381770       -1.3951437525
 H          1.0317529844        6.9878346931       -0.6448347680
 H          0.9669522578        7.1078995655       -2.1793744785
 O          8.1820001489       -0.0604156731       -4.2533027301
 H          8.9074298341        0.2326217692       -3.6680264128
 H          7.8576390748        0.7653924770       -4.6503777747
 O          6.4067500842       -6.3469024661       -0.6474903958
 H          6.2593742032       -6.3342231430        0.3033978657
 H          6.5434436139       -5.4217386006       -0.9298585190
 O         -8.0653436785       -1.1262141265        1.0274905614
 H         -7.7052449470       -0.2256699671        1.1539242465
 H         -7.6203980184       -1.4362439934        0.2247476712
 O         -6.5195851855       -1.8707995133       -4.8576243309
 H         -6.1495368368       -2.1308904877       -5.7105859247
 H         -7.4855292608       -1.8748764836       -4.8931531673
 O         -9.1073469507        1.0272885784       -0.7917660239
 H         -8.6841899686        0.1761295784       -1.0646875740
 H         -8.4225153774        1.6804244097       -1.0158314898
 O          5.0760657621        0.5982745574       -6.7440908060
 H          4.2727302360        0.0814297835       -6.9205161886
 H          4.8037655742        1.5296329937       -6.7625493237
 O         -9.0516764613       -1.8321082515       -3.8224660046
 H         -9.0477808608       -2.8099680749       -3.6463491317
 H         -9.9507592862       -1.5634752535       -3.5179703527
 O          7.8511937014        0.5069418600        4.6711356654
 H          8.7693071852        0.5465570733        4.3761616236
 H          7.3018380263        0.4518521420        3.8501371169
 O          0.3316354211       -4.9761297102        6.0470260256
 H          1.0044527372       -5.0181120660        6.7259046999
 H         -0.5400912667       -4.7941676368        6.4940683221
 O         -4.5832076676       -2.3306876021       -6.7271700191
 H         -4.3761755274       -2.7448344133       -7.5649825932
 H         -3.9785479479       -2.7192509747       -6.0661779354
 O         -0.1051019764       -6.3962495250        3.7499303544
 H         -1.0515453031       -6.2777686706        3.5469296445
 H          0.0091053294       -6.0894019527        4.6623370359
 O         -6.2696162975       -3.9577070524       -3.1166788680
 H         -6.3046617709       -3.1676501721       -3.6808895718
 H         -5.6497671911       -4.5690694597       -3.5755814291
 O          0.2413945856        1.1287629526       -7.3159455473
 H          0.2907125908        0.5184840734       -6.5386838204
 H          0.8656161140        1.8482652594       -7.1025681165
 O          6.7519341907        4.9103569107       -4.5683996278
 H          7.6034982134        5.2891287236       -4.3422367083
 H          6.1684267998        5.1198905316       -3.8199553357
 O         -2.4151739387        1.5104383362       -2.5473982367
 H         -1.6735259055        1.5980803920       -1.9171060886
 H         -3.2252700947        1.4265817470       -1.9799223276
 O          4.2234104837       -4.7072423089        4.4654678072
 H          4.1205914337       -4.4245019674        5.3932521550
 H          4.6671390662       -3.9347959066        4.0526514660
 O         -3.1819422753        6.9141288242        1.2851498240
 H         -4.1456010787        7.0508774540        1.2219714052
 H         -3.0944939631        6.0210197957        1.7039873152
 O         -1.8364065087       -0.5510762082       -8.1669133125
 H         -2.5568501535       -0.1614626100       -7.6561453697
 H         -1.1000430782        0.0755541316       -8.1224289961
 O         10.0712361872       -2.3496195040       -0.3380199880
 H          9.9617534685       -3.3117613207       -0.2238069902
 H          9.4111072062       -2.1086941003       -1.0199598022
 O          6.4871451017        0.6902535315        2.3914990398
 H          7.1848427151        1.3207578569        2.1055499224
 H          6.5341346395       -0.0824976870        1.7999286862
 O         10.3200058112        0.7481067788        3.1833080415
 H         11.0810218768        1.0652032628        2.6705960508
 H          9.9362667634        0.0373763441        2.6160263724
 O         -0.0525635124        2.2404478904       -4.0045625078
 H         -0.6199638500        2.2018628637       -4.7914253775
 H         -0.4185171098        2.9467179638       -3.4534846866
 O          0.7137347939       -3.7815222884        0.9827043210
 H          1.2776151369       -3.9546889985        1.7696229470
 H          0.3431220109       -4.6515571890        0.7574697012
 O         -3.2226823270        3.5543645285       -3.9915536111
 H         -2.8075772509        2.8908378577       -3.3848845147
 H         -2.6783782118        3.5524797819       -4.7872353420
 O         -3.6635016913       -3.9901999852       -1.9224594711
 H         -4.4164020706       -4.2037817290       -1.3658705494
 H         -3.4745857432       -3.0479560581       -1.7561763416
 O          6.2687527917       -4.3334858246       -4.3771668936
 H          6.3093283515       -3.4603780057       -4.7955258972
 H          5.3269107308       -4.5736174305       -4.3435864143
 O          6.8691647237        2.7701382327        5.6300736206
 H          7.2493140948        1.9197064377        5.2874955867
 H          7.1929595270        2.8687489707        6.5246966102
 O        -10.8547867821        1.7091004324       -2.6123789352
 H        -10.2973688082        1.4890206319       -1.8215530647
 H        -11.2997706329        2.5350086899       -2.4288997968
 O          6.2201410144       -1.4342614067        0.7099692399
 H          6.4921019619       -2.3681256190        0.7883439600
 H          6.1848612547       -1.2020545909       -0.2286907489
 O         -9.7089906457       -2.4378932562        3.6294332500
 H        -10.4849978198       -2.0767755571        3.1785435400
 H         -9.1649161168       -1.6395110945        3.8052528361
 O        -11.6107631910       -1.0107625363        2.0883108878
 H        -12.5642751037       -1.0580350986        2.0412863256
 H        -11.2608682886       -1.3430914334        1.2247172688
 O          5.3609382353        4.9599471047        2.3092437960
 H          5.1079813157        4.0163984806        2.1897976049
 H          4.7096508006        5.2959694091        2.9521043385
 O         -8.4335675921       -0.0978239045        3.9162218578
 H         -8.8058106957        0.3095114654        3.1132540547
 H         -7.4720411452       -0.2259944033        3.7545245949
 O         -6.4133644380        5.5694918179        3.5172523144
 H         -5.6300487281        5.1856191485        3.9494459601
 H         -7.0143393174        4.8382916964        3.3455734729
 O          6.6854826463        3.0762993947        0.1826216132
 H          5.7935816393        3.4561430364        0.1291175567
 H          7.2799366215        3.8284621361        0.3402873072
 O          4.6011922384        3.3198766767       -6.2846591108
 H          4.4944246174        3.3626204965       -5.2984718710
 H          5.1477113363        4.0758541658       -6.5005962610
 O         10.0707917312        3.1920367147        0.1330533985
 H          9.4177375858        2.7671695805        0.7331205002
 H         10.9091383995        2.7634661076        0.3623858659
 O         -1.6582312719        5.2995513061        4.4650810416
 H         -1.3132698006        4.5864207279        3.8698658994
 H         -1.4557984706        6.1079574954        3.9630984025
 O         -8.9934059769       -3.9663611959       -0.3397913463
 H         -9.1183366070       -4.3439538438        0.5443274653
 H         -8.0494419034       -3.7049958889       -0.3717055287
 O         -8.9276783354       -4.3555288782       -3.0940191127
 H         -9.1548222263       -4.3547853787       -2.1522652481
 H         -7.9543234320       -4.4359507375       -3.1195081233
 O          8.0330430512       -1.6342527364       -1.9347888766
 H          8.0877641622       -1.3536815621       -2.8569466802
 H          7.7567281774       -0.8368806078       -1.4492850236
 O         -8.0379718197        4.9296380207        0.0764937716
 H         -8.2290696234        4.3880940565        0.8728011096
 H         -7.6541534332        5.7497332009        0.4215923302
 O         -2.2280036181        6.4614983963       -1.1293652728
 H         -1.3905630374        6.9420137440       -1.2511197110
 H         -2.6083869430        6.7732423832       -0.2679685899
 O         -4.2177669328        4.5677519319        4.8922020416
 H         -3.3100322804        4.8652247710        4.6488786631
 H         -4.3510581795        4.8452664513        5.7982660258
 O          4.9007308582        6.8551314132        0.3708266506
 H          5.1983997172        6.1901250358        1.0166525405
 H          5.2572961835        6.5965112967       -0.4884673850
 O         -0.7540558765        7.0347165493        2.5925440496
 H         -0.4655376703        6.3646213286        1.9443480773
 H         -1.5595168571        7.4108183591        2.2162868713
 O         -1.3420514622       -3.0371820973        2.6265447322
 H         -0.6691359844       -3.4160505090        2.0369968736
 H         -1.6597028230       -2.2255703980        2.1284942024
 O          2.2743922761        6.5742242947        0.5686321838
 H          3.2281442107        6.7737530007        0.4261253367
 H          2.2381820900        5.6488285835        0.8577571304
 O          3.0674475491       -5.7350197161        0.7295300941
 H          2.1803987367       -6.1061878689        0.8641631752
 H          3.3378903932       -5.9468613691       -0.1900301569
 O         -3.1522170147       -6.5585843866       -2.4624417669
 H         -3.8343338890       -6.8332544814       -1.8321740645
 H         -3.0905526614       -5.5937960057       -2.3070707689
 O          1.7753418902       -3.2832516987       -6.3943654790
 H          1.7286630723       -3.0379694250       -5.4475173504
 H          0.8695966931       -3.1996704825       -6.7276581792
 O          1.3468044638       -6.6100456809       -2.3340956378
 H          1.3408484412       -6.4997291789       -3.2949950683
 H          2.2622762175       -6.8250472281       -2.0933220956
 O          8.9957103140       -0.8810738598        1.5910808426
 H          8.5267332289       -1.4598173341        2.2211275627
 H          9.4572640880       -1.4743353277        0.9556070543
 O          4.2735391429        3.9763496223       -0.6591142038
 H          3.5561443944        4.1707811483       -0.0321334774
 H          4.2161013346        3.0149147364       -0.8277433918
 O         -4.5421043943        5.3601412591       -2.4729188339
 H         -4.0578886149        4.7519632391       -3.0664046552
 H         -3.8966068199        6.0079390247       -2.1654989411
 O         -8.1179387208        3.3425151842        2.3118522369
 H         -7.1921304921        3.0168040842        2.2367337583
 H         -8.6928999850        2.5849161393        2.1253566060
 O         12.0340797223        1.5466914210        1.1654730466
 H         12.9791893424        1.6850069985        1.2100794811
 H         11.8975027132        0.8477694849        0.4645228908
 O        -10.3808694996       -1.7045254172       -0.1367972247
 H        -10.0817399786       -2.6233346526       -0.3052574093
 H         -9.5777077667       -1.3118708903        0.2746491779
 O          5.3544353698        5.8261002366       -2.2345944271
 H          4.9934130807        5.0603920303       -1.7327819501
 H          4.5796856642        6.2650643451       -2.6032840164
 O          8.5122455136        2.3384060446        2.0934607597
 H          8.2547367178        3.1314875089        2.6165211278
 H          9.2033961119        1.8570629154        2.5994113517
 O         -7.4085373628        3.1457340963       -5.1350703250
 H         -7.9805842558        2.4048359841       -4.8788757569
 H         -7.4975901963        3.8202518167       -4.4498236288
 O         -0.3214769324        5.1118961362        0.6640461889
 H          0.4125276681        4.8637574561        0.0767864951
 H         -1.0106238792        5.4678328803        0.0924226357
 O         11.7132931475       -0.1767046189       -0.7651197845
 H         11.2961982587       -1.0297712748       -0.5641985139
 H         11.1337968578        0.2394429780       -1.4305422905
 O          7.6751904987        4.4189411476        3.5035391531
 H          7.4094954037        3.9702493458        4.3208579341
 H          6.8328643783        4.6935770984        3.0735076259
 O         -1.6384026439        2.4593708834        6.6041108534
 H         -0.9504296826        1.7753019499        6.7031316823
 H         -1.1182478265        3.2874402848        6.5974843029
 O         -6.7207316207        1.1755502266        0.8852435513
 H         -6.0062722032        0.5202031124        0.7506079805
 H         -6.7339102794        1.6827851295        0.0704010850
 O          7.2620030547        2.2915558118       -5.3239707939
 H          7.0961499804        3.2020347570       -5.0209334661
 H          6.8022836093        2.1823812080       -6.1579115869
 O         -0.8830506852        1.8893921168       -0.4702639125
 H         -1.2242755800        1.1666667304        0.0875893647
 H          0.0822876276        1.7955606340       -0.4475374338
 O         -2.0016091465       -0.3086804127        0.9003415425
 H         -2.4033806857       -0.7203695273        0.1276829757
 H         -2.7258817233        0.1580121834        1.3599257407
 O         12.6002571822       -1.3513025683        1.8862842508
 H         11.7730954403       -1.8268294195        1.9797993547
 H         12.7593862454       -1.2563451186        0.9442128301
