  121
       -203.84557873
 H          0.7677114353       -0.9049983975       -0.9874843249
 O          3.6731945050        0.2886893191        0.7127411972
 H          3.4928706823        1.2163749199        0.5078060685
 H          4.3877102781        0.0255300077        0.1016302564
 O          0.3855844652       -0.3622520344       -1.7441553752
 H          0.3638816911        0.5918244826       -1.3593310940
 H         -0.5698541854       -0.6615768783       -2.0285521174
 O          0.6168817811        1.8322774744       -0.5084929629
 H          0.3130991277        1.5974615179        0.3900932178
 H          0.1160881773        2.6353995999       -0.8096676430
 O          1.4739410195       -1.1615291372        0.4209771186
 H          1.4973363099       -1.9890568288        0.9418409750
 H          2.3602065834       -0.7386760024        0.4734473227
 O          2.7880839847       -3.6258739004       -0.4714473285
 H          3.2771838766       -4.3186330527       -0.9154662282
 H          1.8456762311       -3.7190642341       -0.7531677033
 O         -1.2610578941       -1.9813795672        0.2844164939
 H         -1.3339198915       -2.1181093252        1.2412320984
 H         -1.3877633465       -1.0119116519        0.1328897139
 O         -0.6943989379       -3.3441152543       -3.5364663461
 H          0.1604909244       -3.0876660575       -3.9525693903
 H         -1.1672123471       -2.4974655202       -3.4248408716
 O         -1.8371055610       -1.0833859656       -2.6610690407
 H         -2.5339118120       -1.4617424818       -2.0848886193
 H         -2.1994065118       -0.2392901149       -3.0550433253
 O         -1.8674107873        0.5224729352       -0.2614214659
 H         -1.7634072082        1.2104057118        0.4214743117
 H         -2.8257032179        0.3913006399       -0.3434810845
 O          0.1261380550        0.5795964140        1.8405215242
 H          0.6209327754       -0.1090823439        1.3397241593
 H          0.6516405910        0.7606697045        2.6444446118
 O          5.4094219721       -0.1222132587       -1.3076539861
 H          6.3596097951       -0.2273752886       -1.3473818074
 H          5.2052189840        0.7858158517       -1.6726304009
 O          3.9238960293        0.7693538081        3.4615920140
 H          3.0643490604        0.5616098120        3.8539273431
 H          3.9229098420        0.4000296343        2.5653246772
 O         -1.5505824126       -1.1875684243        2.8719389819
 H         -1.0104438605       -1.6161001409        3.5465646771
 H         -1.0089291371       -0.4365761825        2.5223334271
 O         -4.5216660894       -0.1231764910       -0.0886390382
 H         -4.4183071421       -1.0125567653       -0.4654578672
 H         -4.4874430730       -0.2245673383        0.8770255066
 O          0.6169025778       -2.1542945546        4.3724861141
 H          0.9106528577       -2.6924449798        5.1081818694
 H          1.0009439916       -2.5485888668        3.5654236442
 O         -2.8325144757       -4.7234262144       -2.4845705176
 H         -3.3267878033       -5.2372690547       -3.1237409268
 H         -2.0530458322       -4.3716085550       -2.9534508358
 O          1.3136910977       -3.3145556551        2.0046341877
 H          1.9127580152       -3.8643555099        1.4885619386
 H          0.4084970189       -3.7015933003        1.9334941331
 O         -1.4504257407       -5.6009580768       -0.1858553115
 H         -0.6931692421       -5.1271039085       -0.5827062580
 H         -2.1630676738       -5.4974757309       -0.8300073300
 O         -3.4980184309       -2.4658618576       -1.0477710250
 H         -3.4787711406       -3.3091799468       -1.5273032543
 H         -2.7290093273       -2.4892602465       -0.4355400691
 O          3.0807135298       -1.3818017733       -2.0491682160
 H          3.9905025872       -1.0675457234       -1.9289085909
 H          2.9786822770       -2.1207903302       -1.4199218310
 O          1.2307472051        5.0926229585        0.6167767439
 H          1.4656628698        5.9603676266        0.9461058339
 H          0.8861433850        4.5905267843        1.3773921207
 O          4.5966592765        2.2082015083       -2.1536311532
 H          4.1798828059        2.6582271509       -1.4000829066
 H          3.8516063440        1.9234263872       -2.7125878376
 O         -2.8731386567        4.0867900224       -0.4095502471
 H         -2.5926862868        3.5922029719        0.3814542094
 H         -3.4535879747        3.4896312783       -0.9034944854
 O          0.2403006352       -3.7241763911       -1.0949830672
 H         -0.0535958489       -3.6142045333       -2.0307573877
 H         -0.2554352717       -3.0617666596       -0.5726881235
 O          0.4999056832        3.4078427433        2.6968222070
 H          1.4830278142        3.2747634682        2.7605341658
 H          0.1668829870        3.2306277037        3.5851715293
 O          3.1090059995        3.2094771293        2.7377689988
 H          3.5156198486        2.4101723939        3.1383518593
 H          3.3521275202        3.1894222283        1.8027942499
 O          1.2624944166        0.5101384766        4.2436777522
 H          0.6475270446        1.0894896561        4.7153585948
 H          1.0190945265       -0.4097507223        4.4449569583
 O         -4.4457734449        2.1239417696       -1.6527354036
 H         -5.2834002904        2.3561470933       -2.0552003267
 H         -4.6052416193        1.3472044116       -1.0869075295
 O         -3.2842188751        1.8525838310        3.7792359730
 H         -3.6324831551        1.0135412539        3.4084979861
 H         -4.0388357208        2.4196891155        3.9446162769
 O          2.3717891846        1.0348460335       -3.1890947517
 H          2.2254374299        0.7837470175       -4.1082954672
 H          2.4778423241        0.1998625536       -2.6998214610
 O         -2.6115181072        1.2077073045       -3.5320831131
 H         -3.2036296169        1.6310211143       -2.8895271410
 H         -1.7651679287        1.6869808535       -3.4962485443
 O          0.6825680423        0.2802456539       -5.3011279418
 H          0.1337847791        0.9100283911       -4.8117598198
 H          0.3990989855        0.3121551445       -6.2150709208
 O          1.5643801887       -2.1874201226       -4.2632471894
 H          2.1426880345       -1.9463669938       -3.5220809768
 H          1.2724943809       -1.3574235572       -4.6675955481
 O         -4.0665176136       -0.4796736779        2.6462365143
 H         -4.6217301406       -1.1082382117        3.1094481514
 H         -3.1399788059       -0.8218047937        2.7092503560
 O         -0.0963727000        2.2432581239       -3.3896606733
 H         -0.2029392994        3.0743069636       -2.9062466124
 H          0.7954102606        1.9202204572       -3.1673893500
 O         -0.4246657230        4.0660272072       -1.3635436119
 H         -1.3671313516        4.1813050006       -1.0843582854
 H          0.1013676918        4.6705672343       -0.8204681842
 O         -0.7897336043        2.2588881949        4.9895887808
 H         -1.6572416427        2.0473515677        4.6055678549
 H         -0.9510122838        2.6967091863        5.8261927979
 O         -1.1894604564       -4.2460995752        2.0632739164
 H         -1.3765875288       -4.7598445537        1.2384651569
 H         -1.3809956098       -4.8393504463        2.7892760999
 O         -1.7986070491        2.5446607695        1.5489699495
 H         -0.9261335160        2.8339472942        1.8780624068
 H         -2.3186490520        2.3273575952        2.3375898833
 O          2.9633022960        2.9955886194       -0.0746682547
 H          2.1473860914        2.5041349127       -0.3241210939
 H          2.6506320754        3.9083248937        0.0121988005
