  189
       -320.71198838
 O          2.9547710143       -1.2410554793        0.7968839693
 H          2.9248134841       -1.1658853567       -0.1750694911
 H          2.6187286710       -2.1414838070        0.9861563382
 O          2.4318924283       -1.2856117840       -1.8683959879
 H          2.3014380437       -0.4163269873       -2.2875744237
 H          2.9142304939       -1.8434478762       -2.5188189658
 O          5.3361247836       -1.7850854948        1.7633725072
 H          5.8001912126       -0.9309668846        1.6893226697
 H          4.4413091246       -1.5798369743        1.3859420436
 O         -7.1975807624        1.1283596504        0.9129678090
 H         -7.1193973437        2.0620960802        1.1812612710
 H         -6.9114952658        0.5945696940        1.6762657753
 O          3.5305843750        1.1852658930       -0.5357984298
 H          3.4422552449        2.1295230412       -0.8038357868
 H          3.8334705820        0.7337860718       -1.3466312951
 O         -7.6314326775       -0.7582610822       -0.9902587913
 H         -8.5227943800       -0.7771085174       -1.3403911604
 H         -7.5781705914        0.0090900366       -0.3900431254
 O          1.3698917000       -0.0507057999       -5.2679226864
 H          0.9048250155        0.6676898321       -5.7250017245
 H          1.5335814314        0.3096486406       -4.3638281710
 O          2.5944302912       -1.4781028243        4.4751209705
 H          3.3546938554       -0.8643713771        4.5700279305
 H          3.0214859640       -2.3024054090        4.1773470263
 O         -6.0187225534       -0.5900022652        2.6988039888
 H         -6.0239553841       -0.8920808486        3.6137972667
 H         -5.0596215231       -0.4655826859        2.5003918606
 O          0.1851795030       -3.1429906272        3.9807665455
 H          0.9317412241       -2.6376851413        4.3151129326
 H          0.1889725459       -3.0510928282        3.0163550885
 O         -1.4648117265       -0.1121928512        4.4645803256
 H         -1.7486275266       -1.0497608641        4.5411480116
 H         -0.7235185576        0.0281880209        5.0997667037
 O         -0.2895902867        2.5820444628       -3.2109257247
 H         -1.0979625602        2.1593572629       -2.8520942579
 H         -0.3515512906        2.5072402593       -4.1806409745
 O         -6.3537163545       -2.4277653262        0.7596918908
 H         -6.9488488861       -1.9985141121        0.1229198597
 H         -6.3627732553       -1.8678596048        1.5638309347
 O         -0.1340441066       -3.1660427189        1.1457858325
 H         -1.0942134746       -3.2288399628        1.3033615161
 H         -0.0252206770       -3.1348833646        0.1784128569
 O         -0.5498114227       -1.8733815933       -5.0391308732
 H          0.1858676543       -1.2356484832       -5.1953500080
 H         -0.1182639462       -2.7287015791       -4.8937840056
 O          1.9467881238        1.1527888567       -2.9780437521
 H          1.1638925162        1.7414562506       -2.9707403294
 H          2.6505310781        1.6634910075       -3.4379678868
 O         -4.3767899161        0.8913043915       -3.9321788020
 H         -4.9588680313        1.5107724730       -4.3721495589
 H         -4.9407297802        0.1210567148       -3.6626748566
 O         -4.7282207135        1.3153527019       -0.1660560827
 H         -5.6836199769        1.2208962908        0.0081360847
 H         -4.3565463075        1.5972243089        0.6910014253
 O          5.9929931784        0.5409980228        0.5631098529
 H          6.3846179777        0.0756775221       -0.1912548452
 H          5.0803228264        0.7706854442        0.2964474955
 O         -3.8427199319       -2.8069258470       -2.2656601846
 H         -3.9478434732       -3.6964531438       -1.9171486483
 H         -3.8992004894       -2.2212710460       -1.4645901990
 O          0.1661642259        3.5861013978        0.6711104752
 H         -0.7824223440        3.7406853966        0.8284554972
 H          0.3788413854        4.0064701219       -0.2115219084
 O         -1.5770638111       -1.3917717638       -2.6897307156
 H         -1.2167763412       -1.5091034797       -3.6059434206
 H         -2.3862524979       -1.9372397350       -2.6566961978
 O         -3.9119721754        1.1951755487        4.7476228628
 H         -2.9929515202        0.9809327614        4.9584499795
 H         -4.4082588690        0.3766047174        4.9086359604
 O         -2.4288302974       -2.6129293463        4.2968355466
 H         -1.5433376765       -3.0086692474        4.4082472149
 H         -2.6557593829       -2.8204433178        3.3684481274
 O          3.3786361017        3.7312243600       -1.2322173056
 H          3.6971298305        3.9624300829       -0.3374662177
 H          4.1731012901        3.6640064223       -1.8046827801
 O          3.4035670492       -3.0608053835       -3.5833507114
 H          2.5686120684       -3.4463859285       -3.8987407382
 H          3.6796262409       -3.6176656259       -2.8263479479
 O         -4.7045966689        4.0313647095       -0.5206872788
 H         -3.8514686030        4.2485895499       -0.1119618964
 H         -4.6372166076        3.0927654197       -0.7644790619
 O         -5.8450645122       -1.1513292674       -3.1760451295
 H         -6.4095031563       -1.0347567826       -2.3987953894
 H         -5.2111878438       -1.8604281341       -2.9684296419
 O          3.5039742143        1.1122634735        2.2936341622
 H          2.7101898791        1.4037645324        2.7890284473
 H          3.2677722351        0.3233722418        1.7817900616
 O          4.1069906493       -3.4916754754        3.4650360012
 H          4.6665719121       -2.8658620877        2.9586304944
 H          4.6837172164       -3.9558165649        4.0717440071
 O          4.1270222703        3.6595493700        1.3555963371
 H          4.0463042710        2.7221700326        1.6065603414
 H          3.4140657735        4.1125566564        1.8356134095
 O          3.8857294459       -4.2607090672       -1.2273686186
 H          3.2948238612       -4.1851915177       -0.4646547081
 H          4.7615419989       -3.9962648388       -0.9096493946
 O          6.2861086257       -3.3228576501       -0.1325033503
 H          5.9406300366       -2.7893351652        0.6345880941
 H          6.9256320705       -3.9424955427        0.2183611372
 O          5.5909043765        2.9373220472       -2.4966478718
 H          6.1263698114        3.1113509425       -1.6935912823
 H          5.4668034594        1.9698290310       -2.5227819308
 O          4.0368149202       -0.7264713178       -4.9695541010
 H          3.9830680778       -1.6518177290       -4.6890746305
 H          3.1421225748       -0.5008500137       -5.2758431436
 O          6.9497014770       -1.1067790351       -1.5103134673
 H          7.8242867616       -1.1786379745       -1.8925031216
 H          6.7237316206       -1.9777230749       -1.1222921374
 O          1.8179218112        4.6569230515        2.4661613027
 H          1.7077207317        5.6072461751        2.4666485622
 H          1.1849975897        4.2940154426        1.7987314746
 O         -0.4419662379        1.9394461879       -5.8509591313
 H         -1.2091003209        1.3097215161       -5.8552171945
 H         -0.5531387125        2.5140135883       -6.6077846990
 O         -2.8032696202       -3.0650864353        1.6279995522
 H         -3.3557491704       -3.6373736141        1.0690731732
 H         -3.0971776740       -2.1552418615        1.4436199114
 O          0.2988562766       -2.9342200731       -1.5747683508
 H          1.1179805484       -2.3993481841       -1.6299304576
 H         -0.4193378594       -2.3558784217       -1.9174334652
 O         -6.4063780972        3.6872399099        1.4714724315
 H         -6.9641382552        4.4497496712        1.6228580366
 H         -5.8405157887        3.9014467192        0.6800143173
 O         -4.1386358901        2.3376742088        2.3179932953
 H         -4.0588342475        1.9477854414        3.2151277340
 H         -4.9659620867        2.8408282773        2.3103849883
 O         -2.4071840381        0.1950207036       -5.7647142022
 H         -2.0105362337       -0.6702631524       -5.6055411165
 H         -3.0948509339        0.3424569347       -5.0917234773
 O          1.4627254948        2.1969475999        3.6655178399
 H          1.7292542587        3.1221689387        3.5912585234
 H          0.5433850347        2.1815901963        3.3135570967
 O          0.8372085812       -4.0490598207       -3.9475128333
 H          0.7275697154       -4.9977878586       -4.0051856222
 H          0.6073228359       -3.7866729366       -3.0240366132
 O          4.8890052486        0.2801449544       -2.6524091709
 H          4.5919079784       -0.0550397135       -3.5269114908
 H          5.6176385192       -0.2898091566       -2.3656327594
 O          4.7533322146        0.0874879897        4.4047300782
 H          4.4775916699        0.5339026016        3.5724421337
 H          5.0971990356        0.7651299199        4.9854353030
 O          0.8081205947        4.5538348306       -1.6351635793
 H          0.4027155524        3.9775814025       -2.3035124911
 H          1.7635160559        4.3682298188       -1.6514193738
 O          3.7239641429        2.4071058862       -4.5138814243
 H          4.4231456554        2.8480210514       -4.0132377792
 H          4.1472489256        1.7239623431       -5.0404311294
 O         -4.8022120719       -1.4238429656        5.1083075060
 H         -4.0010588215       -1.9090105735        4.8386365628
 H         -5.0521953425       -1.7693682524        5.9655987730
 O         -3.4078762268       -0.4337720870        2.2992282645
 H         -2.9205829298       -0.2684840960        3.1111389619
 H         -3.0372323995        0.1549625320        1.6190038519
 O         -1.0738330507        2.1158630895        2.8490177805
 H         -1.3562730150        1.8186506395        1.9692800482
 H         -1.3822656825        1.4525017880        3.4768077852
 O         -4.6080327916       -4.4236447950        0.0385432624
 H         -5.3240522419       -3.8069651323        0.2781739013
 H         -4.9000179201       -5.2976205793        0.2982627933
 O          2.4786129335       -3.8375996749        1.2083734849
 H          1.5147764854       -3.8610257200        1.3227022722
 H          2.8916822469       -3.9897386937        2.0685754313
 O         -2.3368590130        1.1636384171       -2.1945613220
 H         -2.0463024707        0.2431827941       -2.3717459222
 H         -3.1608924917        1.2543696908       -2.7011856983
 O          0.7901823898       -0.4670864917        2.7177952632
 H          0.0413849869       -0.3159783456        3.3102600270
 H          1.5204659064       -0.8032769638        3.2680531698
 O          6.5717317952        3.1734235048       -0.0006636338
 H          6.5723945950        2.2536543538        0.3176442945
 H          5.9095753611        3.6219371359        0.5394793523
 O          0.8187336524        0.3856207308        5.6826002620
 H          1.4495622660       -0.3343951844        5.5583457205
 H          1.1404835706        1.1214238997        5.1327251702
 O         -4.0782428718       -1.2704259802       -0.1903956217
 H         -4.8939212114       -1.6560090161        0.1790675040
 H         -4.2575557510       -0.3172754691       -0.3245165953
 O         -2.4840723717        4.1314881115        1.1797664929
 H         -2.4281439721        4.8668399261        1.7908861795
 H         -2.9423704097        3.4087516090        1.6635796123
 O         -1.9693757530        0.9334569440        0.5921293564
 H         -1.1219101887        0.4419440203        0.4215526603
 H         -2.2423385956        1.2020128455       -0.2957125476
 O          0.3375557596       -0.1870285326        0.0325137404
 H          0.6190038750       -0.4899976818        0.9112121069
 H          0.9754560428        0.4855656430       -0.2221841327
 O          8.5056339203       -0.5495317517        1.4572714787
 H          8.9752383862       -0.1220290425        2.1732203901
 H          7.7283605444       -0.0069362882        1.2760085569
