  135
       -229.10093453
 O          0.5951632450       -3.2410995719        2.9057205714
 H         -0.3168712776       -2.9152625322        2.9269484361
 H          1.0109488077       -2.8770406318        2.0976403996
 O         -1.2766496570        1.0663922047       -0.6407690257
 H         -1.7883530387        0.2580187523       -0.8561687710
 H         -0.7086348622        0.8166199896        0.1074890998
 O          1.0758465947       -0.6662771560       -1.2405210635
 H          0.6428254937       -1.2088996389       -1.9215751418
 H          1.9797995035       -0.4712580626       -1.5781066571
 O         -1.9973248949        3.6352787090       -0.5023636273
 H         -1.2152128094        4.0148261083       -0.0582262496
 H         -1.7784684633        2.6805821321       -0.5748428595
 O          2.1769165278        2.3294294160        3.7052560431
 H          2.7096513987        1.8613807619        4.3555588484
 H          2.7483921226        3.0608054827        3.3633532303
 O         -4.8281299792       -0.9042334747        0.2285612701
 H         -5.0621200046        0.0146940615       -0.0101220002
 H         -4.6090036817       -0.8734298360        1.1742131256
 O          0.0060170723       -2.2069017291       -3.1990287745
 H         -0.4822818327       -1.6053467478       -3.7887676033
 H         -0.5987679086       -2.9206540728       -2.9494996450
 O         -1.1012699194       -0.3783181868        4.8985774637
 H         -1.4776593541        0.3399425954        4.3640955448
 H         -1.4589918901       -1.1979816095        4.5293834431
 O         -2.1300324472       -2.3659987172        3.1983527091
 H         -2.8277040961       -1.7254057104        2.9853346516
 H         -2.3983330416       -3.1843472773        2.7570001369
 O         -5.2942978555        1.6859877240       -0.3465656025
 H         -4.6667175593        2.1261012393        0.3192404556
 H         -6.1545958044        2.0683937585       -0.1736017502
 O         -0.2526397206       -0.0686568604        1.6050158288
 H          0.4127059164       -0.2054569966        2.3051777545
 H         -0.4290505959       -0.9547755503        1.2272899343
 O         -2.4875810849       -4.3115050530        1.3192252216
 H         -1.7324975965       -4.9432984198        1.4239458661
 H         -2.9580816977       -4.5405593142        0.5051796245
 O          3.7878837271        4.1108086514        2.6021237254
 H          4.3664865905        3.5296386615        2.0731083687
 H          3.3175970029        4.6623394416        1.9581776689
 O          5.3568923806        2.5150969081        0.9951153812
 H          5.3251586675        1.6324796830        1.4624530189
 H          6.2830158561        2.7544780797        0.9662933529
 O         -2.2373802873        3.4655507658       -3.2026324649
 H         -3.0183211471        2.8924269610       -3.2136037370
 H         -2.1600373105        3.7611861539       -2.2750260698
 O          4.7267105010       -2.3825135368       -2.3479271110
 H          5.3730181598       -2.9282634656       -2.7938933987
 H          3.8537529102       -2.8369211652       -2.4645646089
 O          1.9318975248       -1.8838049419        0.9943659816
 H          1.5009798957       -1.5011925723        0.1996269061
 H          2.8754727428       -1.9427367230        0.7718751443
 O          2.7428528009        0.7331235094        1.6032313052
 H          2.4832901249        1.2178228425        2.4113218499
 H          2.4130058310       -0.1758017712        1.6767104418
 O          0.6913481612       -4.3290539306       -0.7020352904
 H          0.0043600175       -4.5341298253       -1.3544398760
 H          0.3762270207       -3.5050305309       -0.2729493621
 O          3.7388207781        0.0790755053        4.4703089743
 H          2.8557747696       -0.2619180845        4.2045216690
 H          4.0934054760       -0.5389628996        5.1086155329
 O         -5.2266765520       -2.6150395822       -1.9324045814
 H         -5.2732636509       -2.0507009755       -1.1442807156
 H         -4.8150056629       -2.0809163157       -2.6275959659
 O         -1.4420261464       -4.4847912834       -2.4938797884
 H         -2.2780349002       -4.5141920804       -1.9832818443
 H         -1.4929653572       -5.1683587991       -3.1616506784
 O         -4.0630432184       -0.4033912436        2.8271643841
 H         -4.6359918545       -0.2655666129        3.5815150831
 H         -3.3976382654        0.3177152797        2.8484928053
 O         -2.5833416155       -1.1671227344       -1.2007447342
 H         -2.9233126666       -1.1187954012       -2.1169052529
 H         -3.3708442853       -1.1400096299       -0.6180197786
 O          2.1948702623        1.3473125168       -4.0880637143
 H          1.2837036897        1.3999937577       -3.7540662033
 H          2.5268946859        2.2637290044       -4.0631493564
 O          2.3874306976       -3.5464861522       -2.6832354229
 H          1.6994636368       -2.9896349416       -3.0766526996
 H          1.9752891276       -3.9062322898       -1.8745178448
 O          2.6761628620        5.3886437251        0.3827739997
 H          3.0569982687        4.6526674656       -0.1695053757
 H          3.0446448453        6.2062835576        0.0510821740
 O         -0.1782611468       -5.5654557043        1.5909938739
 H          0.2699602317       -5.3295299391        0.7577110322
 H          0.1960181700       -4.9528416784        2.2488719867
 O          0.3130168566        4.0251104748        0.7754762263
 H          1.0264828582        4.6770518551        0.7285811867
 H          0.6949713962        3.2043521156        0.3916731917
 O          1.4898817251        1.8943014186       -0.3214660109
 H          1.1640137629        1.1382190334       -0.8320181381
 H          1.9710048340        1.4698749915        0.4430207609
 O         -0.8386854336       -2.3999085410        0.3855739826
 H         -1.4624424813       -3.0265046041        0.8092131663
 H         -1.3388321707       -1.9958430229       -0.3432350147
 O         -0.3760837610        3.2686103742        3.3125589650
 H         -0.1863689100        3.6394325276        2.4297903088
 H          0.4729003921        2.9014964772        3.6119480898
 O          3.6073534930        3.3266511456       -0.9573397930
 H          2.8369737770        2.7204576347       -0.8304857697
 H          4.3045628158        2.9592015932       -0.3859135620
 O          2.8647246287        3.9291295162       -3.5066906032
 H          3.2982147389        3.7275139216       -2.6570682792
 H          2.0268497397        4.3412191802       -3.2873301744
 O         -3.7398676130       -0.7996704112       -3.5763091847
 H         -4.0324682773        0.1151855861       -3.4076027527
 H         -2.9480765879       -0.7151115095       -4.1354467934
 O          3.4577145208        0.1073627582       -2.1112468214
 H          3.0943955500        0.5873670550       -2.8923335960
 H          3.9938154818       -0.6185999550       -2.4532442629
 O         -3.7671078792        2.8596704558        1.3334370428
 H         -3.1605642594        3.3346106939        0.7244421060
 H         -3.1845779141        2.3228660169        1.9056667771
 O         -1.2918633223       -0.3279794899       -4.6811591727
 H         -0.9580305369        0.4055202851       -4.0863299660
 H         -0.9046371680       -0.1619156985       -5.5405998713
 O         -2.0577902527        1.3506572531        2.8657494945
 H         -1.4347142268        0.8144936136        2.3149165885
 H         -1.5004886296        2.1368376195        3.1300908886
 O         -3.7697049219       -4.6620126182       -1.1557215432
 H         -4.3521613402       -5.4184906125       -1.2283518071
 H         -4.3087978803       -3.8739558704       -1.4365812771
 O         -0.3981488414        1.5610640003       -3.1274548225
 H         -0.9785407343        2.3433785253       -3.2802895575
 H         -0.5639645232        1.3156140716       -2.1919586382
 O          5.4927389982        0.2274234591        2.2676986547
 H          5.1520143494       -0.4110457475        1.6207565553
 H          4.8541743780        0.2371794881        3.0014631946
 O         -4.4794312196        1.7622297966       -2.9094368589
 H         -4.6987792696        1.7464849026       -1.9508386149
 H         -5.2407181033        2.1279619978       -3.3608964280
 O          4.4379788112       -1.2731009957        0.1580765082
 H          4.0986645709       -0.4491753297       -0.2198276510
 H          4.7312294240       -1.7877463934       -0.6101734739
 O          1.2861075425       -0.7578251355        3.7809418166
 H          0.5297107327       -0.5292913198        4.3653736940
 H          1.2253427987       -1.7218962019        3.6375725770
