  129
       -218.86045860
 O          1.7297563271       -1.3854198003        3.8006330601
 H          2.6733877356       -1.5754377265        3.8666577204
 H          1.2759770984       -2.2221277040        3.5953687366
 O          3.7431570345        1.2732709151        3.7037109009
 H          3.7618483934        1.7173891351        2.8465742830
 H          3.9373721972        0.3415239832        3.5486761032
 O          2.8283183353        1.9928254886       -4.4308995732
 H          3.1803521837        2.0354618981       -5.3206536327
 H          2.1310741309        1.3083514642       -4.4247868275
 O         -1.4364441558       -1.5388947477       -2.0942650951
 H         -1.9170397159       -2.3294940779       -1.7881528279
 H         -0.9534588285       -1.8026351313       -2.8960256448
 O          1.2340642786        3.6984880549       -2.8738964547
 H          1.9101396920        3.4007093567       -3.4999416243
 H          0.4109226498        3.2656609986       -3.1710672185
 O          0.7753819059        0.2446181755       -4.0361071586
 H          0.5351581335       -0.6615024927       -4.2767301998
 H          1.0352999860        0.2052306160       -3.0834374554
 O         -4.5570574308        2.7514793691       -1.1884181608
 H         -4.3801281705        2.6752211421       -2.1586717939
 H         -4.1719106168        1.9157007918       -0.8364614868
 O          2.3396690188        2.5736149730        1.5542792916
 H          1.6739254924        3.1543307836        1.9257527822
 H          2.0037047281        1.6585772232        1.6258047106
 O          1.5843845879        0.2381259221       -1.5251476186
 H          2.2874724737        0.9211593768       -1.4412692855
 H          1.9597792621       -0.6453495055       -1.3250084279
 O          5.5755061757        2.0807372242       -0.7903880515
 H          5.4969008588        1.4531785882       -0.0625771436
 H          4.6954772350        2.4837643689       -0.8677915113
 O         -0.8910478856        2.3276979236       -3.9364594359
 H         -0.9997969398        2.6514613476       -4.8325834244
 H         -0.3893462654        1.4836534065       -4.0038795037
 O          4.3868788336       -1.5449440848        2.9718148312
 H          5.2539661325       -1.8121274555        3.2769567740
 H          4.5215388301       -1.0061738458        2.1467535416
 O         -2.7310934105        4.5160324992       -0.3526015632
 H         -3.1281007950        5.3873504527       -0.3215685707
 H         -3.4491155825        3.9055314136       -0.6618885332
 O         -3.7100371709        2.1359456887       -3.5933239164
 H         -2.7545802399        2.2731500645       -3.6436965240
 H         -3.8287798413        1.1620193392       -3.5509135951
 O          4.3859021853       -0.0762117824        0.8018447142
 H          4.6075837534       -0.5548059843       -0.0186420173
 H          3.4106202728       -0.0099642571        0.8489555495
 O          1.7328910212       -0.0607419903        1.4468010932
 H          1.1238239776       -0.6289329782        0.9337591205
 H          1.7108881806       -0.4307581078        2.3522855869
 O          2.5833020977       -2.2022279825       -1.1370292694
 H          3.5179734660       -2.0383057973       -1.3621553674
 H          2.5841894873       -2.5601880729       -0.2148152790
 O         -4.3654024056       -2.3590579323        0.6022476593
 H         -4.8457622157       -1.9924397368       -0.1634422198
 H         -4.6793026454       -1.7998362301        1.3279503321
 O         -5.8862852506       -1.1272690651       -1.3678479781
 H         -6.1752352849       -0.2581202374       -1.0186737580
 H         -6.6615285130       -1.5413306159       -1.7491897015
 O         -4.1302761821        1.5235369870        3.4248738037
 H         -3.3800676830        0.9768356640        3.7089845166
 H         -3.7420963118        2.3522979239        3.0977962390
 O         -5.3287765461       -0.0129606483        1.6760925734
 H         -6.1018871762        0.4455103424        1.3316620948
 H         -4.9558821262        0.5642255421        2.3936066526
 O          0.0301792316       -2.4265344838       -4.2314136788
 H         -0.3661901633       -2.9068547051       -4.9589568180
 H          0.5604899135       -3.0672710565       -3.7079258695
 O         -1.8519655234       -0.0339139427        3.6722871844
 H         -1.8747288054       -0.9041769909        3.2404502452
 H         -1.2975970901       -0.1274125068        4.4824646199
 O         -0.3601007435        1.8632633798        2.6105214511
 H         -0.9533973866        1.1590910181        2.9680672084
 H          0.2751955049        2.0280496185        3.3295206700
 O          2.7031914804       -3.1562966585        1.3018003968
 H          1.8771121092       -3.4081706439        1.7434186147
 H          3.2551167352       -2.6983459203        1.9511806810
 O          2.8921895603        2.4708749473       -1.0524347141
 H          2.7123008825        2.6729732760       -0.1126403182
 H          2.3531439083        3.0709746949       -1.5938549173
 O          0.0308057263       -0.0720503563        5.5297073608
 H          0.4001161371        0.8209617366        5.4727848269
 H          0.6788819248       -0.6318980109        5.0748102306
 O          1.4235265920        2.1926885463        4.6430740125
 H          2.2915366748        1.8129720900        4.3716535315
 H          1.6177951593        2.9550266464        5.1886728363
 O         -0.0444767130       -1.6247836267        0.1969619218
 H         -0.4731937382       -1.4142418168       -0.6566432421
 H          0.1783220277       -2.5817835902        0.1313380063
 O         -3.8185653504       -0.5180139130       -3.1695424575
 H         -2.9933108278       -0.7269644859       -2.7061549954
 H         -4.5246365329       -0.6888257501       -2.5277406745
 O          0.0619710856        4.3086422581       -0.4376688717
 H          0.4429811139        4.4872098699       -1.3075559212
 H         -0.8798846789        4.5428978302       -0.4723570120
 O          1.4175678520       -4.0386786022       -2.5980941633
 H          2.0879596995       -4.6625751641       -2.8782134000
 H          1.8826927730       -3.3355485281       -2.0693462167
 O          4.9839518600        0.7717788412       -3.0648094941
 H          5.3611965973        1.3569886809       -2.3738749263
 H          4.2269834032        1.2494338818       -3.4386288878
 O          0.4426142218       -3.6074582775        2.8952830035
 H         -0.4286300314       -3.2450492453        2.6398230127
 H          0.2965492305       -4.5156627191        3.1607437287
 O         -1.8070785752       -2.2901097370        2.0823342537
 H         -2.6659357547       -2.4867009016        1.6902953103
 H         -1.2291331402       -1.9676219839        1.3524805083
 O         -2.5828572179        3.5303597975        2.2901201280
 H         -2.5725947657        3.9517929602        1.4178470774
 H         -1.6963241759        3.1734092956        2.4490945011
 O          5.0471619578       -1.3192235622       -1.5465580378
 H          4.9837045618       -0.5545261622       -2.1896846682
 H          5.9281138740       -1.6777991566       -1.6541530907
 O         -6.7503217790        1.3101208837       -0.4803727207
 H         -6.0554440441        1.9573832658       -0.7336463213
 H         -7.5866786503        1.6859900066       -0.7566806092
 O         -2.6763604016       -3.7222663769       -0.9902841123
 H         -3.2444636733       -4.3258473823       -1.4705217177
 H         -3.2507655824       -3.2696260131       -0.3406928182
 O         -0.0358755468       -4.2408353027       -0.1952788420
 H          0.4273218793       -4.3967155624       -1.0302020941
 H         -0.9819677096       -4.2535827854       -0.4021062180
 O         -3.2576962851        0.6703493105       -0.1796883347
 H         -3.2895108426        0.7312236859        0.7786415220
 H         -2.3571450472        0.9403911849       -0.4564907813
 O          4.0077464122       -4.9313712407       -0.4363900295
 H          4.6480783354       -5.4149130684        0.0850928664
 H          3.5030465442       -4.3848770042        0.1866834953
 O         -0.8757308351        1.5500326524       -1.0687524532
 H         -0.0883551166        0.9931954815       -1.1089457375
 H         -0.5833135930        2.4102800172       -0.7400009122
