  144
       -244.35464039
 O          1.2292000612       -0.5948474645        3.0716838988
 H          1.4385344366       -1.4377936846        3.5042054596
 H          0.2694527225       -0.4253035188        3.2010187468
 O          2.4307445540        1.7428769534        3.6815205381
 H          1.9598029845        0.9111346770        3.4713164082
 H          3.3679455307        1.4619646306        3.7251802560
 O         -4.9354798669       -1.1971788089       -0.0132799053
 H         -4.8733702561       -1.0873693524        0.9617676853
 H         -5.5871803853       -0.5470945167       -0.3124565142
 O          2.3009110703        3.9026680319        2.1628855733
 H          2.3182777985        3.0658317478        2.6934856458
 H          2.5870218961        4.5945041754        2.7606775942
 O          0.2698418266        4.7292923445        0.5462336905
 H          0.9435444570        4.4126045732        1.1793995198
 H          0.7466900429        5.2415983223       -0.1100752803
 O          3.1508374796        3.9957838507       -0.5480685975
 H          4.0095738520        3.5369779004       -0.5749277564
 H          2.8816598774        3.9512645201        0.3798657374
 O         -3.7834568035        3.9848150393       -1.4408318948
 H         -4.1637063351        4.3549766449       -0.6208837370
 H         -2.8919897231        3.6633889266       -1.1609853364
 O          3.6771958260       -2.7045240797       -0.4011694547
 H          3.1481830975       -2.0036338047        0.0136346372
 H          3.8026501721       -2.4192127714       -1.3210430019
 O         -0.3176950826        2.6085457157        4.0810024446
 H         -0.7023502632        1.7242401049        4.1289604957
 H          0.6379637713        2.4813712679        4.1012612970
 O          6.1709222350       -0.8244165381       -1.7874632313
 H          5.9667755239       -0.6190628808       -0.8603496503
 H          5.3475472773       -1.1137510806       -2.1965974628
 O         -1.3328566480        0.0241509393        3.4086947799
 H         -1.7852679527        0.5517483455        2.7204324718
 H         -1.7257046914       -0.8677326027        3.3394639725
 O          1.9589685254        2.3825760219       -2.4014847443
 H          2.3429025175        3.0593508533       -1.8121725403
 H          1.2096002313        2.7850509794       -2.8598895531
 O          1.0276539782       -1.4318359275       -2.5217330352
 H          0.4745898462       -0.9690939671       -3.1797962744
 H          0.8662286300       -0.9320564404       -1.6941564806
 O          3.6055124011       -1.6032279178       -2.9329905506
 H          2.6217514136       -1.5128970457       -2.8051117095
 H          3.7290515521       -2.2132310658       -3.6617253107
 O         -1.6816298636       -3.3803912572       -1.2912124692
 H         -0.9233727901       -3.7962026207       -1.7795594375
 H         -2.3052562158       -3.0703376482       -1.9723296524
 O          2.0660829634       -4.9478877446       -0.5740088534
 H          1.5513240010       -4.8005739363        0.2365966886
 H          2.7699528109       -4.2803648232       -0.5382969156
 O         -2.8057179338        1.4031160553        1.5684670092
 H         -2.4092791317        2.3015084609        1.6074272889
 H         -2.6441315846        1.0372106859        0.6580822900
 O         -3.1759821940       -0.2726079008       -3.9827524117
 H         -3.6549282700        0.3559235858       -3.4211418744
 H         -3.3886316232       -1.1606564546       -3.6454312045
 O         -3.2735094333       -4.4155589054        0.6031369622
 H         -2.6206616103       -4.1610897761       -0.0826093095
 H         -3.3517118543       -3.6474894200        1.1814393654
 O         -1.4842407191       -4.8359019864        2.7969228030
 H         -0.6112580325       -4.6985582407        2.3768909331
 H         -2.0640929136       -5.1767103329        2.1023979276
 O          0.7996751166       -3.9278043523        1.6437833452
 H          0.4065231896       -3.1270925157        1.2407531606
 H          1.3393656758       -3.6269291222        2.3899704375
 O         -0.5915517349        0.0676908201       -4.1253699893
 H         -0.4157285369        0.0283856855       -5.0661404849
 H         -1.5696199026       -0.0976115933       -4.0233427611
 O          6.1543045977        1.7323614728       -2.6962213136
 H          5.3524138501        1.6432242481       -3.2579843505
 H          6.4107424901        0.8116464655       -2.4911062759
 O          0.4603064325       -4.1499040429       -2.5633192337
 H          0.7597168457       -3.2290710697       -2.6279707104
 H          1.0465988745       -4.5745084761       -1.8974823345
 O         -5.2208408004       -3.6258274405       -1.1795428802
 H         -4.6584155610       -4.1597465842       -0.5878878543
 H         -5.2849777814       -2.7613375999       -0.7332314808
 O         -3.6386033813       -2.8340187206       -3.0993732090
 H         -4.3164819161       -3.1289026486       -2.4251775523
 H         -3.6647417059       -3.4804717550       -3.8049199054
 O         -2.2983137819       -2.3327914224        2.5330260360
 H         -2.0276651477       -3.2347001925        2.8267685500
 H         -1.7103437505       -2.1262858136        1.7748227551
 O          5.4779720147        2.5336163099       -0.3556938795
 H          5.7225074550        2.2635865560       -1.3030685499
 H          6.2117389814        3.0665062522       -0.0480835838
 O          3.8341834708        1.0992945052       -3.8808487028
 H          3.1391623494        1.5952548669       -3.4063953798
 H          3.7619108045        0.1826020693       -3.5830871523
 O          4.6950352289       -2.2828160889        3.8176419643
 H          5.3286065626       -2.6782471974        4.4170472254
 H          5.0498608343       -2.4544654089        2.8971596808
 O         -3.0336802746        3.5917867924       -4.0993874765
 H         -3.5710659715        2.8007077472       -4.1980390923
 H         -3.3424680734        4.0177042259       -3.2845917509
 O         -4.4503777370       -0.6883062542        2.5615914287
 H         -3.8543733690        0.0586903018        2.4076964440
 H         -3.8572160581       -1.4359506119        2.7410286680
 O         -4.3971570639        4.6110411574        1.1250366816
 H         -3.5474006600        4.4906439999        1.5731352415
 H         -4.9552053086        3.8784211201        1.4146596982
 O          5.3722321860        0.0761030500        0.7510599880
 H          5.4223532229        0.9916670141        0.3987455706
 H          4.4293090074       -0.1687659697        0.7298405059
 O          2.1270930214       -3.0164590396        3.9090703682
 H          3.0825868908       -2.7850178335        3.8740013229
 H          1.9905156249       -3.5719433386        4.6767887530
 O          4.8297980740        0.5153243266        3.4700956958
 H          4.7138490782       -0.4043705650        3.7535803384
 H          5.1750683387        0.4568441816        2.5642230953
 O          5.6920486482       -2.6202209066        1.4371319392
 H          5.9959547452       -1.7340903306        1.2034216560
 H          5.0206700611       -2.8462333435        0.7652131857
 O         -1.4416553405        2.9654439252       -0.7954048199
 H         -1.0874979080        2.8407485988       -1.7035430477
 H         -0.8737862730        3.6231802558       -0.3712893664
 O         -2.6888895795        0.1576107791       -0.7310388385
 H         -3.1494867902        0.7417448113       -1.3640685867
 H         -3.3419894849       -0.5380581163       -0.5268664142
 O         -6.4921609588        1.0233233376       -0.5693363812
 H         -6.1363791518        1.4754802297        0.2323844303
 H         -7.4051445727        1.2930452844       -0.6633822405
 O         -0.5495724036       -1.8677849779        0.5318277697
 H         -0.2494051189       -1.0353878416        0.1364021820
 H         -0.9866200209       -2.3679133012       -0.1969772734
 O         -1.8509326385        3.8247816462        2.1670630005
 H         -1.2158548996        4.2874368720        1.6062471906
 H         -1.3449736411        3.5182587156        2.9440143010
 O         -0.6106821372        2.7044998964       -3.3248206226
 H         -1.4024358004        3.1051831216       -3.7400199520
 H         -0.5965991530        1.7717371848       -3.6089575773
 O         -5.4086847325        2.0180296654        1.6579629265
 H         -5.7211535947        1.4822284843        2.3906540315
 H         -4.4419361386        1.8235713786        1.5822570538
 O         -4.4093915541        1.5572911412       -2.2866035212
 H         -4.2445682365        2.4867156843       -1.9942146151
 H         -5.2280288106        1.2944612925       -1.8383825830
 O          2.6038071913       -0.3379570719        0.6540524776
 H          2.1793296281       -0.4033816975        1.5293537432
 H          2.0246313335        0.2332156048        0.1328148018
 O          0.3761404244        0.6337195243       -0.8272430397
 H         -0.5433245460        0.9340888921       -0.7873930046
 H          0.8429889918        1.2650629094       -1.4106199828
 O          0.2133833424       -2.6072110727       -5.1252408517
 H          0.5961108917       -3.3813399640       -4.7017224108
 H         -0.7123012910       -2.6003541774       -4.8725531858
