  309
       -524.48426409
 O          8.4075036078       -1.0845863785        1.7444339138
 H          9.2304125822       -1.2876443715        2.1876423175
 H          8.6372283515       -0.7898142788        0.8318925547
 O          2.2867082011       -2.3135853236        4.4720521367
 H          2.3859938282       -1.7915971032        3.6370373367
 H          1.3768492717       -2.1294237880        4.7488323123
 O          4.5180271329        4.4666281506        3.6462171380
 H          5.0102555968        3.7002843452        3.9767295724
 H          3.5788501178        4.2553528940        3.7507317536
 O         -0.4890862177        1.7510426241        0.1264018107
 H         -1.3468604048        2.0906876686       -0.1789482001
 H          0.2085066164        2.0837972932       -0.4715994568
 O         -2.5556347330       -3.9018827776        2.3980869983
 H         -2.6328003471       -2.9979867126        2.7761097453
 H         -1.9736852733       -4.3576739772        3.0234963567
 O          1.6857486232        2.7679062722       -1.1356090959
 H          1.8359919286        3.0824550906       -2.0427859895
 H          1.8645455171        3.5203038483       -0.5617312188
 O          4.0434192841        4.8603524113       -1.6912279262
 H          3.1493084516        5.2598403677       -1.6529902750
 H          4.4915540771        5.0887939502       -0.8706165709
 O         -0.2169008430       -1.2465078565        4.9186830906
 H          0.0463236634       -0.5739515721        4.2554064913
 H         -0.6883316921       -0.7559402126        5.6179264925
 O          1.9658222499        1.7723753227        1.4817650572
 H          1.8455264289        2.7133473602        1.3004286562
 H          2.9142798803        1.6151083051        1.3178922599
 O          1.2616148803       -0.5177215107        0.0435208175
 H          1.4737143271        0.4166924947        0.1771462406
 H          1.9842467673       -0.9239675157       -0.4587546890
 O          1.6172298925       -3.4829994433        0.0839237583
 H          1.2910085658       -4.3850761443        0.1312876655
 H          1.1412692323       -2.9884075952        0.8051677978
 O         -2.1267960954       -1.5458659538       -4.1163301575
 H         -1.9883930966       -2.5073393794       -4.0603850841
 H         -1.7266402990       -1.1844479835       -3.2905207906
 O         -6.2550772358       -1.6448658109        3.7693659192
 H         -7.1572701750       -1.2636799518        3.6916184101
 H         -6.3316187143       -2.5252814754        3.3371462024
 O          1.3588440660       -6.0913631199        3.1826931645
 H          2.2146263074       -5.6495663560        3.3087871773
 H          1.2337912196       -6.1942490105        2.2252092299
 O         -2.9865949371        1.4724928118       -2.2519230080
 H         -2.6145310898        1.7318474965       -3.1141793998
 H         -3.6674491845        2.1384278718       -2.0475500974
 O         -8.0692592821       -2.2891468208        0.4481371956
 H         -8.6960456799       -1.5653001584        0.5299839000
 H         -7.1946931698       -1.8591249460        0.2978360390
 O          1.7782554264        3.7519446526        3.7423939849
 H          1.0387126557        3.6529178421        3.1027988520
 H          1.3868082484        3.5634109480        4.6040036859
 O          7.0696376670       -3.3879193321        1.2612473119
 H          7.4156802744       -2.4931466425        1.4599705324
 H          7.8677565587       -3.8996307490        1.0120628104
 O          0.0793084833       -2.8940523979       -5.9010057544
 H          0.2265640742       -2.1673996718       -5.2555773627
 H         -0.4359995633       -2.5066908116       -6.6088320211
 O         -0.6244042015        5.3737167379        0.1587426410
 H         -1.5443246674        5.6636522402        0.1848129400
 H         -0.5912021885        4.7636772016       -0.6088252063
 O          4.0747263880       -3.8089789783        1.0053947723
 H          3.1978928538       -3.5731083607        0.6214747865
 H          3.8897310342       -4.0671285710        1.9329087843
 O         -0.3811953081       -4.2688026565        3.9376524672
 H          0.2464329703       -4.9999024805        3.7076641633
 H         -0.1488345571       -3.9647841963        4.8151020478
 O          0.7316699658       -3.1611680205       -2.4265049726
 H          1.0616449603       -3.1439195828       -1.5052515181
 H          0.6075750871       -2.2404742598       -2.7259811948
 O          3.5180620042       -6.0654801391       -0.4152473749
 H          3.8992107877       -5.4263414496        0.2167535227
 H          2.6041624600       -6.2080639828       -0.1371484353
 O          0.4169292299       -2.3790951086        2.0977919953
 H         -0.2821235434       -1.7860507787        1.7699158293
 H          0.0321065583       -3.0096297310        2.7283464813
 O         -5.5814395800       -1.4279177019        0.1080663565
 H         -5.1742183361       -2.3067533141        0.2169098765
 H         -5.3449027821       -0.8998250959        0.8882327180
 O         -0.6195919426        3.9064939468       -2.0851522596
 H         -0.4575055319        3.0186779397       -2.4609950589
 H         -1.4340704022        4.2518250341       -2.4896979447
 O         -2.3068107927        4.8523381093        3.1423490461
 H         -2.2811044716        5.7191910370        2.7383550781
 H         -1.5866178398        4.3205146575        2.7165045120
 O         -1.2943750645        0.0198032688       -6.1019101065
 H         -1.4540737759       -0.5754713531       -5.3318811861
 H         -2.1035162416       -0.0330984429       -6.6178922996
 O         -8.5531766696       -0.3501277404        3.2435457330
 H         -8.1921997588        0.5107592690        3.5080399278
 H         -8.7050578368       -0.2557399332        2.2904988035
 O         -5.0735645783        0.1836963477        2.3164731049
 H         -4.1892958185        0.4747538396        2.6051501846
 H         -5.3962294918       -0.5332684452        2.9232079523
 O          3.4107476412       -1.6561127566       -1.2422335044
 H          3.4938871327       -2.5635575282       -1.5924465605
 H          4.0542130491       -1.5718948102       -0.5319927081
 O          0.7967820365        1.8075739336       -5.8893147662
 H          1.7265561431        1.5462424790       -5.8407758067
 H          0.2647317285        1.0386164445       -6.1370159045
 O         -0.2903137740        3.5804935161        2.0282819434
 H         -0.3872900858        2.7782983745        1.4572939046
 H         -0.2450584319        4.3112413915        1.3686653777
 O         -4.6117945232        3.4725674722        2.5982047796
 H         -4.7791839329        3.0002434171        3.4268437138
 H         -3.8404229572        4.0379766094        2.7579656910
 O         -4.5273704385       -3.9024529102        0.5522964727
 H         -4.1971297804       -4.4020267619       -0.2020182110
 H         -3.8630129907       -3.9890820241        1.2584486057
 O         -2.5670402810        1.3734035285        2.7953267076
 H         -2.6875313333        1.9476574397        2.0125649471
 H         -2.5900302070        1.9482316862        3.5776531698
 O         -2.1599687611        2.3149903628       -4.6985726743
 H         -1.5174567072        3.0503430232       -4.7676054435
 H         -1.7622549392        1.5654034754       -5.1745398911
 O          0.1497452928        1.5177838454       -3.2188760260
 H          0.9874024504        1.3397762108       -2.7580452283
 H          0.3909692565        1.8186509376       -4.1138985465
 O          6.2566206533       -3.1344085666       -1.3590959462
 H          6.3610801544       -3.2500468497       -0.3961482936
 H          5.4929614978       -3.6734790166       -1.6219123878
 O          9.3719527891       -4.4175359802        0.3973613764
 H          9.3429392920       -3.8419976836       -0.4117321846
 H          9.5124577367       -5.3082693851        0.0766409959
 O         -5.2395884096        1.5037670022       -0.1117173841
 H         -5.3452335955        1.1501689742        0.7778022667
 H         -5.9490280047        1.1289858824       -0.6490807197
 O         -6.2357750102       -1.4064690089       -4.5115890592
 H         -7.1651405460       -1.4161180605       -4.2529680691
 H         -5.7673563172       -0.9483125646       -3.7879430523
 O          5.8644364379        1.5615265412       -3.9346163507
 H          5.3869425900        1.8342182931       -3.1236165805
 H          6.0264888246        0.6159373219       -3.8154456555
 O         -2.8988276065        2.8034309366        0.4449326479
 H         -3.0286188718        3.7521873147        0.2929388597
 H         -3.7143513551        2.3688028808        0.1478228656
 O          4.5558003725        1.8427343433        0.9065718346
 H          5.3749952715        1.4452586481        1.2621593735
 H          4.6790771124        2.8092964112        1.0039659160
 O          2.2413773418       -3.9179564534       -4.4596584461
 H          1.6832435188       -3.7208181939       -3.6654765407
 H          1.6301361869       -3.8588003999       -5.2037601299
 O         -6.9721673206        1.8606672349        3.3426079077
 H         -6.3013877540        1.3114016929        2.8821981075
 H         -6.5288795237        2.1599411455        4.1452237412
 O         -4.2742501889       -0.5238053467        5.2652728744
 H         -5.0883451247       -1.0146686306        5.0762636460
 H         -3.6339248074       -0.8604997668        4.5996251371
 O          3.0258967719        1.2962158166        4.0730129654
 H          2.5691286288        2.1129207515        3.8055463859
 H          2.8360111371        0.6266890342        3.3807653585
 O         -7.6538573875       -3.6513071097       -1.8692666881
 H         -6.6909815593       -3.6049853614       -2.0020883687
 H         -7.8294615395       -3.3427479675       -0.9614119971
 O         -1.8805348087        0.2786427418        6.4348129396
 H         -2.7411710054       -0.1519461356        6.3329603237
 H         -2.0114567296        1.1734016989        6.1037740598
 O         -2.9498043065        4.9854261934       -2.9730260399
 H         -2.8605619113        5.0395499695       -3.9250279126
 H         -3.6921209078        4.3706326053       -2.7799826877
 O         -4.8467677574        2.1021780730        5.0374049702
 H         -4.6887442288        1.1366277850        5.1291186086
 H         -4.0540428154        2.5228951060        5.3883031910
 O         -1.3107017109       -4.1483839930       -3.8316760531
 H         -0.8879747848       -4.0701423624       -4.6986436126
 H         -0.6170932563       -3.8878863482       -3.1907884282
 O          3.3599157301        1.4327540128       -4.9916176925
 H          3.0907762109        0.9355739557       -4.1853461862
 H          4.3203076642        1.5628091528       -4.8760127671
 O          8.7538731505       -0.3092919417       -0.7694350791
 H          7.7641872705       -0.2265639463       -0.8212210926
 H          9.0724838607        0.5568771478       -1.0385587053
 O          3.8970666837       -4.1476138776       -2.2256984147
 H          3.5303286365       -4.3269885404       -3.0965252549
 H          3.6955557480       -4.9236526586       -1.6574947619
 O          4.4593547058        2.2107177211       -1.7379627027
 H          4.2904310070        3.1740125794       -1.7448297444
 H          4.5684293985        1.9545950623       -0.7978384041
 O          5.6672316960       -1.1073676155       -3.1225363799
 H          5.9456108466       -1.9270715772       -2.6866816645
 H          4.7948125473       -1.2813490391       -3.5216113392
 O         -5.8258052674        4.2848335843        0.3247799564
 H         -6.7383270448        3.9825472640        0.4395013656
 H         -5.3669802387        3.9168428659        1.1065676156
 O          6.1605912314        0.0772803381       -0.7826722727
 H          5.8313854276       -0.3253108597       -1.6111454280
 H          5.7677242283       -0.4024627116       -0.0313093286
 O          3.3664194042       -1.5213950173       -4.5179355930
 H          3.0512175143       -2.4580117350       -4.5228178320
 H          3.5897868461       -1.2806292337       -5.4169549727
 O          2.2413941708        3.6035199189       -3.7159796280
 H          2.6537774006        2.9002941635       -4.2580261939
 H          2.9318272434        4.2396398148       -3.5153313181
 O          3.5450199765       -4.4660519703        3.5307369612
 H          3.0577143378       -3.7185604827        3.9406997366
 H          4.4687748832       -4.3806595498        3.8162819618
 O          5.5635486486        1.9446737689        4.3462165898
 H          5.8581791433        1.4523793478        5.1130987136
 H          4.6309907531        1.6528926623        4.1823656623
 O          8.9602971437       -2.9006882570       -1.7247806442
 H          7.9988438459       -3.0451217306       -1.7732557384
 H          9.0576951507       -1.9646052984       -1.4876354345
 O          2.6179686761        0.5308275192       -2.6073823559
 H          2.9222994579       -0.3149224232       -2.2423581583
 H          3.1913412731        1.2138350600       -2.1941804441
 O          4.1198862147       -0.6761028295        5.6087116763
 H          3.5053119457       -1.3993197576        5.3807788054
 H          3.6611743368        0.1220608261        5.3087859897
 O          0.3221473070        2.2370780089        5.4809712516
 H          0.3154657542        1.6822697333        4.6566082361
 H          0.4468404040        1.6350940682        6.2149977143
 O         -3.0789060580       -4.8799583044       -1.8212446039
 H         -3.8234086698       -4.3440529910       -2.1570029135
 H         -2.4466002582       -4.8615839514       -2.5535782503
 O         -4.6815987172       -0.6134559515       -2.3953352726
 H         -5.1242876926       -0.6150427581       -1.5321361076
 H         -4.0184595935        0.1101007426       -2.3707066171
 O          2.2959330435        4.5486351751        0.9403950217
 H          2.0823094505        4.9766819587        1.7708473889
 H          3.2643583014        4.5675226393        0.8727753625
 O         -5.0327809962       -3.2458098739       -2.7240160142
 H         -4.7794489677       -2.3185878236       -2.5267561997
 H         -5.3593452123       -3.2065284810       -3.6299121072
 O         -4.7109340859        1.7984598357       -5.4706112982
 H         -3.8511091318        2.1369540084       -5.1663775316
 H         -4.5375924220        0.8621925156       -5.7044887966
 O         -6.7119452721       -3.8196735465        2.3016625497
 H         -5.9899354060       -4.0299145201        1.6927537238
 H         -7.4052720716       -3.4193417205        1.7518293810
 O         -4.8857058811        3.4273040247       -2.0816446032
 H         -5.5883273271        3.0227079108       -2.6180747983
 H         -5.2694201710        3.6301405776       -1.2033835543
 O         -3.3584296451        5.4954382326       -0.1904988622
 H         -3.2471722553        5.5102345717       -1.1512738476
 H         -4.3039956539        5.3668782264       -0.0300849554
 O         -7.2841138674        0.4380671845       -1.7376071424
 H         -7.7213429884       -0.3135757710       -2.1781775490
 H         -7.0755418091        1.0632920179       -2.4528064444
 O          5.0006545978       -1.3411690970        1.2205899661
 H          5.4552185751       -1.1911406560        2.0826187680
 H          4.8632569905       -2.3154217548        1.1635424193
 O          0.6848941757       -1.0180434904       -4.0654290301
 H          1.6481747724       -0.9097751092       -4.0922181532
 H          0.3074675193       -0.1914797450       -3.7103002213
 O         -2.4827253464       -1.4798555223        3.5255753580
 H         -1.6688786723       -1.5728407310        4.0669599752
 H         -2.2381972437       -0.8632497885        2.8129227450
 O          2.6665449192       -0.7531384360        2.3779095918
 H          1.9487650291       -0.8315031370        1.7203380071
 H          3.5074602677       -0.8960369784        1.8992971312
 O          6.2431584483       -3.9754677918        3.7058559546
 H          6.9021502379       -4.5652866109        4.0694797559
 H          6.4720280916       -3.8510304795        2.7492386331
 O          1.4952542123        5.7515290446       -1.7200680951
 H          1.1488005594        5.9650299625       -0.8472375784
 H          0.8477797849        5.1361856582       -2.1017298350
 O         -0.2246567504        4.1809910833       -5.0179995388
 H          0.4851849768        4.2181722871       -4.3586715574
 H          0.1471612705        3.6377416388       -5.7243558019
 O         -4.0466674452       -0.7813246529       -5.9312912571
 H         -3.4858007242       -1.0550537316       -5.1824600493
 H         -4.9269698772       -1.1186693695       -5.7081672622
 O          7.4514246090        3.5620029973        0.6996483999
 H          7.6106359301        3.2534298245       -0.2084458921
 H          7.3872017175        2.7540096694        1.2368816540
 O         -8.5946925760       -1.5478859093       -3.0770111726
 H         -8.2677258209       -2.3980473104       -2.6617451899
 H         -9.5494702120       -1.5986008282       -3.0761449393
 O         -6.6169626703        2.1672923189       -3.7517442442
 H         -5.8852590759        1.9502901761       -4.4006514651
 H         -7.3140942452        2.5669370959       -4.2699996901
 O          5.0228259491        4.5024101712        1.0345645695
 H          5.9780224174        4.2992603710        0.8653380386
 H          4.9601145068        4.6430014707        2.0052804706
 O          5.9569450654       -1.1695311753        3.6940284314
 H          5.3097845157       -0.9341322656        4.3938928261
 H          6.1581843689       -2.1020581114        3.8468685187
 O          6.8658651883        1.2239558852        2.0816416011
 H          7.2988074134        0.3601815586        2.1434580297
 H          6.5075143562        1.4298320187        2.9659517000
 O         -2.2209832519        2.9539244690        5.0984697301
 H         -2.2965633651        3.7946829103        4.6247719372
 H         -1.2651207419        2.8404442237        5.2825551161
 O          7.6224331367        2.2244813743       -1.6862741489
 H          6.9589524199        1.6084697223       -1.3301587960
 H          7.3521803463        2.3856802796       -2.5963573169
 O          0.7896384753       -6.2893359203        0.4598087809
 H         -0.0247577654       -5.7242277253        0.3514345786
 H          0.5292811838       -7.1776856790        0.2170851199
 O         -8.1728144915        3.1677381892        1.3470647709
 H         -8.8617847284        3.7077101268        1.7330467191
 H         -7.6766179279        2.7704764982        2.0985908517
 O          0.1014559078        0.8369949145        3.2545795216
 H          0.7332633730        1.0767823630        2.5501156565
 H         -0.8001008441        0.9819938992        2.9091024595
 O         -8.7254312722        0.5096075702        0.5719966589
 H         -8.6770355742        1.4445702497        0.8193045138
 H         -8.2128794135        0.4598791261       -0.2551646764
 O         -1.1892280772       -4.6352231269        0.1541136455
 H         -1.6552888177       -4.3463409749        0.9600995176
 H         -1.8642338453       -4.7730780392       -0.5332837753
 O         -1.4731447675       -0.6954592679        1.0947631922
 H         -1.7173827836       -1.1173688946        0.2637322133
 H         -1.0317142330        0.1310657317        0.8371997536
 O         -1.0836036150       -0.6197182639       -1.7059180168
 H         -0.2689255630       -0.4610785741       -1.2021833068
 H         -1.5734724731        0.2137420301       -1.7408343467
 O          8.3174215044        0.1938531020        4.5583833558
 H          8.3791617701        1.0167691746        4.0690934581
 H          7.5469555764       -0.2888126199        4.2182819009
