  87
       -142.30510220
 H         -2.4631685205       -0.1063447735       -1.4532325705
 C         -1.7324421524        0.2411377082       -0.7192846855
 H         -2.2438679587        0.8448924000        0.0284719232
 C         -0.6666327421        1.0814049191       -1.4170299554
 H         -1.1053425766        2.0239754044       -1.7385765181
 H         -0.2618248302        0.5594925966       -2.2839222162
 O         -1.1558245092       -0.8377741272       -0.0232950416
 H         -0.6616511182       -1.3874663090       -0.6730720592
 N          0.4205606219        1.3430529012       -0.4583152202
 H          0.0016565980        1.7605587933        0.4148015965
 H          1.1204982205        2.0053945335       -0.8737302177
 H          0.8758566017        0.4487347276       -0.1879155114
 O          0.2114600821       -2.0897650600       -1.9584310283
 H          0.4590134194       -3.0016508646       -1.7255998895
 H         -0.5218080479       -2.1634559319       -2.6017486402
 O          0.9165468686        4.4484766213        2.0514857091
 H          0.9830561588        5.2333150882        2.5964373555
 H          1.6744009510        3.8688775631        2.2806300888
 O          4.3658063277        0.0441353097       -0.9599005547
 H          4.4044424687       -0.7340905811       -0.3663627633
 H          5.1769336943        0.0505965077       -1.4707172577
 O         -3.7797481223       -2.3931163922       -1.2737978614
 H         -3.2180995485       -2.8146436964       -0.5708043281
 H         -4.4979945481       -3.0077747746       -1.4347767458
 O          4.0552506208       -2.1967321318        0.4536575805
 H          4.6243641967       -2.7429048386        0.9961185183
 H          3.8546502192       -2.7241473463       -0.3733784168
 O          2.0446690088        3.0510902765       -1.7651912108
 H          1.9479251697        2.5956065656       -2.6293496469
 H          1.3987109669        3.7690820983       -1.7298485988
 O         -4.3777076850        0.1963147055        2.3435050124
 H         -3.6142490086       -0.4112525937        2.4544916260
 H         -4.9926671759        0.0112657552        3.0538461750
 O          1.1704849548        0.5251883862        2.9108132872
 H          1.8676973218        1.2004609520        2.9832235782
 H          0.3770967199        1.0322400252        2.6400438898
 O          2.8687858458        2.6584035404        2.6375587299
 H          3.6060863675        2.9158716917        3.1927659098
 H          3.2426722201        2.5516054317        1.7187683588
 O          3.8234622971        2.4448052254        0.2323133696
 H          3.3056882297        2.8729370579       -0.4663203780
 H          4.0619096812        1.5743766820       -0.1294139484
 O         -4.9947570299        0.0070063078       -0.3799646369
 H         -4.8830640653        0.0174254429        0.5842435884
 H         -4.5743929348       -0.8071713567       -0.6973765751
 O         -4.0009968658        2.4279910074       -0.9554172831
 H         -4.7068662268        2.9952383161       -1.2683179625
 H         -4.4020580594        1.5341566591       -0.8490938531
 O         -0.6405569993        2.2005340948        1.8682947696
 H         -1.6263953882        2.3388918265        1.8173717583
 H         -0.2600777334        3.0728905755        2.0531944427
 O         -2.0447003079       -2.2718997352       -3.3580902947
 H         -2.4585469148       -1.8609486560       -4.1168327430
 H         -2.7159579950       -2.3082839444       -2.6449565877
 O          1.6516164492        1.4228897829       -3.8462126740
 H          1.9883693417        0.5434018964       -3.5606215897
 H          1.9619313315        1.5554528304       -4.7421460900
 O         -0.1004740747        4.2534553264       -0.5704893787
 H          0.2815298303        4.4290425933        0.3031253310
 H         -0.9661912466        4.6633705551       -0.5785325245
 O          3.4432144623       -3.3736216180       -1.7823041952
 H          3.1869435872       -2.6649467306       -2.3952182289
 H          2.6526017264       -3.9136261493       -1.6307400581
 O          1.0220569312       -4.5235574501       -1.0047789405
 H          0.5822925572       -5.3685811238       -1.1072202538
 H          0.8400726684       -4.2106931271       -0.0969475048
 O         -2.2580309001       -1.4284730511        2.3915645291
 H         -1.5128013135       -1.5758058705        2.9945540548
 H         -1.8537859204       -1.1529835945        1.5458343779
 O          2.4870633381       -0.8974920635       -2.7672405630
 H          1.6508475346       -1.2509964742       -2.3996063737
 H          3.0045862257       -0.5152958786       -2.0375708852
 O         -2.3834646590       -3.5551857081        0.6442711266
 H         -1.4131756199       -3.4857835657        0.6560476650
 H         -2.6615649928       -3.0343291249        1.4128893842
 O          0.3095286492       -3.1413739384        1.1870565907
 H          0.2515013798       -3.0524648332        2.1467043038
 H          0.6876472512       -2.2891405810        0.8829099612
 O         -3.1969688748        2.6003256093        1.6264396752
 H         -3.6960869091        1.8471563006        1.9822741888
 H         -3.4723373712        2.6741485440        0.6896984952
 O          0.1365720660       -1.8748711391        3.7258893673
 H          0.2308204755       -2.0466162444        4.6633492969
 H          0.5689566036       -1.0196272752        3.5469429093
 O          1.6621589111       -0.8528205246        0.6669445841
 H          2.5372911763       -1.2709168296        0.6506063217
 H          1.5632917407       -0.4175732545        1.5410923527
