  84
       -142.48794967
 O          4.8238259872        1.2477865468       -2.4246417423
 H          5.2123554635        1.4377594742       -3.2793373462
 H          4.5539898955        0.2873562406       -2.4459405971
 O          1.5072380662       -2.0904266055        1.5487498686
 H          2.3683242053       -1.9487079507        1.1079584589
 H          1.1024081921       -2.8840646248        1.1690312800
 O          1.2378114621       -0.3693166873       -2.8368637431
 H          0.5898849135       -0.0235330756       -3.4831659905
 H          1.5828221086        0.4332125795       -2.3802770705
 O         -3.2755505980       -0.7429641765       -3.9449993277
 H         -3.7499570698       -0.8977727780       -4.7629604537
 H         -3.0232458821       -1.6337257555       -3.5934092592
 O         -4.1245758782       -2.5589647749       -0.3052569489
 H         -3.5644728482       -2.5043930017        0.4931982173
 H         -4.8981192179       -3.0752752693       -0.0735038477
 O         -1.7790900634       -2.0256787865        4.3112164389
 H         -1.9220392046       -2.5873756466        5.0740631378
 H         -0.7930073621       -1.8521235629        4.2739951024
 O          2.2815880717        1.6952038327       -1.5072817770
 H          2.3134042433        1.4244976567       -0.5606867177
 H          3.1986316331        1.7280100174       -1.8253377430
 O          0.2962007632        3.1039866927        1.6314227349
 H         -0.6631836738        2.9818945965        1.6989883689
 H          0.4216266239        3.4875303335        0.7354954655
 O          0.7519929586       -1.4519860501        4.1149197117
 H          1.1570412168       -1.7568624329        3.2860119287
 H          0.7511732290       -0.4843378443        4.0732170488
 O         -0.8898069438        0.7570675096       -4.0609614139
 H         -1.1342954775        1.5406251884       -3.5474703577
 H         -1.7063904493        0.2480008116       -4.1797624218
 O          3.9086807908       -1.6373768238        0.4011220943
 H          4.6234046006       -2.2619158658        0.5381456386
 H          4.1660621505       -0.8090140061        0.8656906765
 O          2.0185495237        1.0480774298        1.0631664365
 H          2.8707690562        1.0292344504        1.5157663416
 H          1.5228674537        1.8282096213        1.3792071947
 O         -1.8528926352        2.7847419409       -2.3099852299
 H         -2.5427843157        2.5690173192       -1.6484478476
 H         -2.1638045905        3.5507851894       -2.7959971363
 O         -4.6225411236       -0.1001816017       -1.6269963543
 H         -4.5431075160       -0.9446713163       -1.1602663293
 H         -4.2099815693       -0.2328172489       -2.5004435823
 O          4.6642153430        0.5765514807        1.7483586762
 H          5.2003138554        1.0743527208        1.0825636351
 H          5.2100186232        0.4990390072        2.5320589509
 O         -2.3463856517        2.2120045525        1.8649915259
 H         -3.0046276439        2.2507472403        1.1561834674
 H         -2.7267194925        1.7104023380        2.5949806125
 O          3.8604879745       -1.1849752366       -2.3632802842
 H          2.9526297374       -1.0884294171       -2.6918062409
 H          3.7932738332       -1.3985019630       -1.4186056502
 O          0.0032378713        1.1422597720        3.5359043116
 H         -0.9056174765        1.1829083073        3.8794494653
 H          0.2406474830        2.0307816609        3.2389638908
 O         -2.6020663662       -2.9721715605       -2.6697231444
 H         -1.7441499803       -2.6600470739       -2.3407313523
 H         -3.1975298841       -2.9754763238       -1.9052435951
 O         -0.3174410281       -3.7157228860        0.3017855351
 H         -0.3821390057       -4.5474283759       -0.1691839984
 H         -0.3617318625       -3.0012634260       -0.3725596837
 O         -2.6150145006        0.5764141786        4.1889786758
 H         -2.4174577522       -0.3806284109        4.2385657543
 H         -3.0670415689        0.8100394412        5.0005952802
 O         -3.8147535519        2.1376798403       -0.5258504149
 H         -4.1209975943        1.2687073758       -0.8974931970
 H         -4.5727862507        2.7224973082       -0.5816993403
 O          0.4551062776        3.6875003445       -0.9747482010
 H          1.1732745733        3.1231965650       -1.3030247905
 H         -0.3393911491        3.3992074074       -1.4486873361
 O         -2.2530422179       -2.3571421717        1.6815078811
 H         -1.5990449685       -3.0014580617        1.3515576477
 H         -2.2229971746       -2.3922496067        2.6556878649
 O          6.0664487785        1.8232858565       -0.1002021364
 H          6.2414709581        2.7654105078       -0.1009353652
 H          5.6822982128        1.6058412813       -0.9748890978
 O         -0.5939041527       -1.7275558478       -1.3707744588
 H         -0.8379762018       -1.0578190702       -0.6979696351
 H          0.1142848061       -1.2903355346       -1.8879607874
 O         -0.7460135277        0.2101312830        0.4815754235
 H          0.1350226324        0.1030609201        0.8595990371
 H         -1.1901792465        0.8645151786        1.0368699751
 O         -4.0510893617       -0.0710788034        1.7435285119
 H         -3.9037479909        0.3694970872        0.9039016990
 H         -3.2779306694       -0.6374489697        1.8591602509
