  99
       -167.96709114
 O          1.4035098760       -2.2444235933        2.3514200246
 H          0.8533345905       -2.3461722866        1.5512107176
 H          2.2112237758       -2.7442360341        2.1631291767
 O          2.4989279782       -2.1295980610       -4.1787120750
 H          3.2903250602       -1.9091553125       -3.6762933146
 H          2.1014126375       -1.2810887128       -4.4342005803
 O         -0.6587214731       -2.9945494497        4.0223290683
 H         -1.1168246093       -3.5428696049        3.3705358018
 H          0.1523777847       -2.6933829822        3.5791529299
 O         -0.1554091874       -2.7266792241        0.1639771462
 H          0.1004696119       -2.9127142326       -0.7572448775
 H         -0.7260598646       -1.9296065968        0.1127019229
 O          3.5453833309       -3.6611091636        1.2901459770
 H          3.2461972048       -3.7265434035        0.3412584485
 H          3.7751163731       -4.5505262797        1.5603844863
 O          0.5937696449        2.7688954347        3.1963936381
 H         -0.2421708248        2.3872067477        3.5066573464
 H          1.1876478712        2.0015530296        3.1080700075
 O          0.5376262861       -2.8446501041       -2.4595886947
 H         -0.1522088133       -2.1998988843       -2.7124204577
 H          1.2304529555       -2.7112783740       -3.1420308339
 O         -3.7418560168       -0.6784595187       -1.9104650307
 H         -4.3955938716       -0.9629167771       -1.2323084009
 H         -4.0388209050        0.2086862172       -2.1594292379
 O         -1.8584944424       -0.6974437694        0.0441213380
 H         -2.4449254125       -0.6773416933       -0.7390633893
 H         -1.7419761941        0.2328483623        0.3267639124
 O         -1.9271491983        1.7867390451        1.0173441837
 H         -1.8515664614        1.6887774365        1.9880646595
 H         -1.2057472062        2.3939923468        0.7493044905
 O          4.8710033712        2.5756410821        0.3577020199
 H          4.7303674741        1.8494171828        1.0268157627
 H          5.4599717319        3.2001586285        0.7816235237
 O          0.1252381666        3.5011721049        0.6849951321
 H          0.3126290026        3.3726690859        1.6472954667
 H          0.9800086217        3.3656762107        0.2500237735
 O          4.5432510819        0.6748538198        2.1264958052
 H          4.7629954755       -0.1461181327        1.6613584415
 H          3.5988451825        0.6087517026        2.3924117186
 O         -2.4279390925       -0.9531026705        4.1441767423
 H         -2.9321390166       -1.2733277475        3.3720638372
 H         -1.7283805272       -1.6271789357        4.2724129059
 O          2.9644605951       -3.7262956812       -1.2544357528
 H          3.3996305517       -2.9351568042       -1.6186804013
 H          2.0612102873       -3.7006193264       -1.5955504392
 O         -2.7589446138        3.1678777534       -2.6808573201
 H         -3.6295174505        2.7932695087       -2.4611232244
 H         -2.6737619684        3.1301886508       -3.6349629262
 O         -0.5534999027        4.6999983182       -1.7715468388
 H         -1.4268771763        4.3646879190       -2.0109084714
 H         -0.4198929187        4.4474086692       -0.8445338462
 O          1.8929059054        0.4410948148        2.5841364066
 H          1.6780368568       -0.4880460333        2.7715334944
 H          1.6304039323        0.5599010354        1.6345857964
 O         -1.1999976826       -0.8438310116       -3.1098539812
 H         -1.0599317245       -0.0732180288       -2.5115272708
 H         -2.1285322113       -1.0760643658       -2.9961963927
 O         -3.4071506285       -1.9750083617        1.8095874094
 H         -2.7947465860       -1.4862365938        1.2128218144
 H         -3.0439021255       -2.8721050947        1.8547412847
 O         -1.7721695758       -4.2164652740        1.6895279988
 H         -1.8636675169       -5.1048567144        1.3467826854
 H         -1.1434628791       -3.7432106199        1.0969191757
 O         -1.8387522396        1.5239349810        3.7004768543
 H         -2.3947371046        1.9766671931        4.3344303980
 H         -1.9799041898        0.5461964232        3.8767917767
 O         -0.8449352920        1.3953208181       -1.7257163043
 H         -1.6123939806        1.9690470059       -1.8687312693
 H         -0.0993703305        1.8648224880       -2.1587058037
 O         -5.3426491207       -0.9018098609        0.2210677081
 H         -4.8326594614       -1.4395122471        0.8540486620
 H         -5.2080692433        0.0108872473        0.5110187393
 O         -4.9993956121        1.8290757432       -1.9631412340
 H         -5.9358656033        1.7118459697       -2.1262245822
 H         -4.8822688484        1.8414169931       -0.9858766420
 O          5.2640697847       -1.6678215680        0.6932306360
 H          6.1649760547       -1.9188462477        0.8995447573
 H          4.6825444157       -2.3976258010        0.9963194574
 O          1.1399512126        0.2993912053       -4.3085039801
 H          0.2788132844       -0.0766699482       -4.0797489341
 H          1.1406839739        1.2118620523       -3.9939389543
 O          2.6182699907        3.4901583325       -0.6463852100
 H          2.7153015795        4.4391367634       -0.7426511988
 H          3.4746760443        3.1555802160       -0.2790659038
 O         -4.5392887163        1.8153240222        0.6688249547
 H         -3.5518101460        1.8013290708        0.7526170049
 H         -4.8501394397        2.4858729971        1.2771936655
 O          1.0819418279        2.8580958866       -2.8651183093
 H          0.5372097862        3.6542532494       -2.6785516392
 H          1.8097874933        2.9221159450       -2.2275985061
 O          3.8163817640       -0.9826320191       -1.7167345554
 H          4.4142960028       -1.0490956186       -0.9581775282
 H          3.4550226339       -0.0921438734       -1.6884344310
 O          1.1682590612        0.3501657824       -0.0678540391
 H          1.3103434953       -0.4657070316       -0.5519100432
 H          0.3875078036        0.7704528309       -0.4561093444
 O         -7.3858975364        1.0099572548       -0.5384285043
 H         -6.9390699598        0.1589624787       -0.4474572015
 H         -7.9041368211        1.1277546789        0.2588107618
