  99
       -167.96822657
 O         -0.2862318264       -4.5535312023       -0.4209829634
 H         -1.0399855661       -3.9489010253       -0.5200748948
 H          0.1331234159       -4.3351409593        0.4297050148
 O         -2.7187518212        0.7367579359        2.6587827257
 H         -2.5775355121        1.5990016777        2.2197927822
 H         -3.6538289726        0.7305544863        2.9196776418
 O          3.6170365719        2.1767542480       -1.1440142446
 H          3.5676702065        1.2021214493       -1.0606488498
 H          3.0730445360        2.5147748888       -0.4079944671
 O         -1.5358762275        4.1275907644       -1.9962382962
 H         -0.9134851777        4.1250396522       -1.2523560752
 H         -1.1332533301        3.5919050536       -2.7062147171
 O         -0.8536065652       -2.6024158480        3.4248289868
 H         -1.6598718910       -2.4670482580        2.8975785809
 H         -0.6461671822       -1.7276030603        3.8205244305
 O          3.4564046404       -3.0034130391       -1.3515502971
 H          2.6013045230       -3.2910811398       -1.7848218936
 H          4.1549525862       -3.4331603354       -1.8443025232
 O         -0.4754937731       -0.0359123026        4.1342284670
 H          0.2801679673        0.3492857846        3.6647653611
 H         -1.2721432682        0.3242549475        3.7118050580
 O         -0.0234025210        4.1688825235        0.3562557713
 H          0.0558963741        5.0637349892        0.6896164541
 H          0.8018407549        3.6991269419        0.6085805395
 O          3.1922385505       -0.4258026751       -0.6329279129
 H          3.4211831729       -1.3145970307       -0.9624802842
 H          3.3708640516       -0.4529115489        0.3412508361
 O         -2.1015806308        0.2934392553       -3.9848313165
 H         -1.5805914475       -0.5173085109       -3.8313116101
 H         -1.4725707641        1.0309043276       -4.0014915819
 O         -2.3249796713       -2.7002568999       -0.7985938379
 H         -3.1643255961       -3.0746704805       -1.0667195775
 H         -2.4695243364       -2.3279209329        0.1057639125
 O          2.2294051469        2.9177340300        1.1018200184
 H          1.9559532258        2.0867241424        1.6143262587
 H          2.8578330102        3.3733547991        1.6636349410
 O          3.4694254150       -3.1950278077        1.4399333174
 H          3.5073169954       -3.2296510648        0.4700670173
 H          2.5543601339       -3.4308357584        1.6738056819
 O         -3.3545030633        0.4480992651       -1.6497652618
 H         -2.9678452302        0.3629820736       -2.5524279772
 H         -3.4898368092        1.3942077908       -1.5025466488
 O         -2.3939153585        3.0532870051        1.3238645020
 H         -2.9602683569        3.1001022344        0.5414263492
 H         -1.5305970336        3.3978609915        1.0479150520
 O         -0.6827097567       -1.8309137782       -2.9496203863
 H         -1.2906518030       -2.1343201261       -2.2561478347
 H         -0.1097174773       -1.1563381897       -2.5355034229
 O          6.3097419661        0.3814390942        1.6810216000
 H          6.7591540624        0.7124841357        2.4589271868
 H          6.2030787664        1.1465684234        1.0768508739
 O          2.0881179432        1.9294421748       -3.4786161731
 H          1.7706360138        1.0888699218       -3.1044870909
 H          2.6928234573        2.2787589300       -2.8039936612
 O         -5.4720934726        0.7296228440        2.8387181480
 H         -6.0801226864        1.1260996509        3.4620166260
 H         -5.6352940173        1.1629990797        1.9642694301
 O         -3.7928855831        3.1639442066       -1.1214640418
 H         -2.9425811226        3.5350374815       -1.4931756692
 H         -4.4872681609        3.7350026368       -1.4536074851
 O         -5.5802586900       -0.6994704636       -0.9368537508
 H         -4.6835426110       -0.3675900197       -1.2166267256
 H         -6.0335699190       -0.9699814121       -1.7351238961
 O          1.2446678184       -3.7829070605       -2.4719892248
 H          0.6343096432       -3.1335004956       -2.8609895236
 H          0.7258371869       -4.2179376396       -1.7585223433
 O          6.0168854435        2.5058673559        0.0179911322
 H          5.1532741486        2.4346244936       -0.4503833338
 H          6.6869403716        2.5259890285       -0.6660815752
 O          1.5833926238        0.7860205503        2.3851286946
 H          2.4260773408        0.3024207907        2.4579902116
 H          1.0436951932        0.2174149250        1.7549112170
 O         -2.7814248939       -1.7814045136        1.6541373663
 H         -2.6841465510       -0.8424164959        1.9127063511
 H         -3.7501207761       -1.9499116625        1.7192546209
 O         -5.8502186942        1.6890195544        0.3943397352
 H         -5.0864129969        2.1564764444        0.0382706135
 H         -5.8921205906        0.8430202360       -0.0895117269
 O          3.8108188178       -0.6232362457        1.9261486202
 H          4.7530535223       -0.3684451285        1.9110708074
 H          3.7709091444       -1.6094705259        1.9033658603
 O          0.8781870248       -3.9296138392        2.0007340915
 H          0.9748269801       -4.7605234526        2.4679304106
 H          0.2598309901       -3.3841578732        2.5599722698
 O         -5.4292619878       -1.7976668830        1.6320819411
 H         -5.5795970456       -1.4997874976        0.7212812331
 H         -5.5518829740       -1.0115175489        2.1877216161
 O         -0.4199195452        2.6035288618       -3.9652524046
 H         -0.4688184937        2.9865784671       -4.8419172809
 H          0.5395228697        2.4244499511       -3.7959008080
 O          0.8081999338        0.0620209783       -1.7211422122
 H          0.2419601700        0.1701258206       -0.9454267492
 H          1.6806708256       -0.1846683280       -1.3490872394
 O          7.6204859472       -0.7645510835       -0.5504516717
 H          7.1961179545       -0.4623978483        0.2654519312
 H          7.4633172923       -1.7080097636       -0.5999021191
 O         -0.3325717020       -0.3229907123        0.8077026668
 H         -1.0944306011        0.1987945320        1.0796710846
 H         -0.5691328071       -1.2482375407        0.9292941669
