  87
       -142.31075312
 H          0.2062219580        1.2595834395        0.8021497951
 C          0.6323059724        1.1145242887       -0.1907721334
 H          1.3915710608        1.8793307196       -0.3684087165
 C         -0.4686314975        1.2512887473       -1.2347823187
 H         -0.0609188269        1.1104304409       -2.2362989009
 H         -0.8928262979        2.2504586149       -1.1640653996
 O          1.2057433878       -0.1756083654       -0.1970363173
 H          1.6956001959       -0.2961377407       -1.0463138271
 N         -1.5082769314        0.2402120656       -0.9843461603
 H         -2.3641973891        0.4468100975       -1.5283479537
 H         -1.7376895895        0.2073616579        0.0377368506
 H         -1.1583365786       -0.7254504991       -1.2438733190
 O         -0.8141414759       -2.2652320596       -1.5425466894
 H         -0.0176762689       -2.4926345311       -2.0581851832
 H         -0.6325720610       -2.5521157362       -0.6147065143
 O         -3.8614686959        1.5302314371        0.2561539017
 H         -4.5936250262        0.9730454218        0.5496804461
 H         -3.9924332076        1.6558029334       -0.6896921100
 O          1.4923385934       -2.9038127384       -2.7979673125
 H          2.0352540047       -3.2175565159       -2.0244131206
 H          1.5050262609       -3.6107921249       -3.4438698237
 O          4.2354304527        2.7488194179       -0.0773079278
 H          3.5516543459        3.0747178756        0.5651790957
 H          4.8305333173        3.4830199286       -0.2393585912
 O         -5.8703507113       -0.4324595971        0.5432988207
 H         -6.8247609782       -0.4265331321        0.6276794991
 H         -5.6599185175       -0.8289282941       -0.3329271828
 O          2.6349210725       -0.4649846570       -2.4390157128
 H          2.2056752517       -1.2516816060       -2.8184553911
 H          3.4821292765       -0.7803365774       -2.0785556382
 O          5.1167012392        0.4134141644        0.8847404237
 H          5.8797169611        0.5953946076        1.4354638877
 H          4.8136633504        1.2732898885        0.5123384633
 O          2.1268882542       -3.0993125230        1.8241456263
 H          2.3521210904       -3.6235918423        2.5931027654
 H          2.4116723163       -2.1722014060        1.9996937908
 O         -5.2190394832       -1.4219704689       -1.8614674632
 H         -5.8781607208       -1.8397784150       -2.4175814634
 H         -4.4941403153       -2.1226373240       -1.7287208949
 O         -3.4049432840       -3.1845862447       -1.5539291663
 H         -2.4927754110       -2.9035633180       -1.7350769563
 H         -3.3888395664       -3.5014390081       -0.6206032005
 O          4.8587943850       -1.4082579374       -1.1181932888
 H          5.7149700549       -1.5928329945       -1.5070426317
 H          5.0026846919       -0.7928226657       -0.3737675794
 O          2.7401076198       -0.5185279455        1.9475999596
 H          2.1527512106       -0.3782737120        1.1685144726
 H          3.6296578052       -0.2625350297        1.6549914725
 O         -1.6421232104        2.9147021081        1.2048507713
 H         -2.4976632693        2.5626672576        0.9212108739
 H         -1.4825775400        2.5516261252        2.0880639926
 O         -1.7230951781       -0.3770749529        1.6619263803
 H         -1.4617939876        0.2641796752        2.3483724681
 H         -2.5965024240       -0.7151871425        1.9216407732
 O          0.6695258553        3.8846202391       -2.2777831771
 H          0.7457637999        4.6255888990       -2.8801990351
 H          1.4661909048        3.3310322303       -2.4210734599
 O          3.0222496912       -3.5138732681       -0.7641077715
 H          3.7317544427       -2.8561266630       -0.8045001996
 H          2.6540313613       -3.4690020434        0.1338701456
 O         -4.1477977211       -1.4577664264        2.3513857071
 H         -4.8105103621       -1.1044168301        1.7240215200
 H         -4.5712489783       -1.5194636482        3.2084194035
 O         -3.8002832594        0.7655318284       -2.4629598532
 H         -3.8372696723        0.9636548707       -3.3990788378
 H         -4.3681673824       -0.0215825853       -2.3081771624
 O          1.6638260854        1.5928900149        3.3431203850
 H          1.9397271035        2.3170080083        2.7546120900
 H          2.0585401139        0.7807300174        2.9796220918
 O         -0.9481186049        1.4743192388        3.4834800587
 H          0.0451281603        1.5204673539        3.4643943866
 H         -1.2042745712        1.6093526447        4.3959911577
 O          2.8608382364        2.3284445536       -2.4991247839
 H          3.4042752737        2.4215818976       -1.7020141043
 H          2.7683648930        1.3782879727       -2.6573830220
 O          0.4108928505        4.4929206750        0.3654913758
 H         -0.3938008509        4.0391915231        0.6734864854
 H          0.4633541345        4.3302178230       -0.5960996301
 O         -0.4831455363       -2.7292489822        1.0395722912
 H          0.4287346614       -2.8909782438        1.3336914532
 H         -0.7444861776       -1.8438043000        1.3560209907
 O         -3.0863303303       -3.7082106313        1.0345611710
 H         -3.4892937735       -3.0028890368        1.5611271287
 H         -2.1284126090       -3.5868012424        1.1178030558
 O          2.4491120717        3.6293729077        1.6452786103
 H          1.6321519218        3.9536925879        1.1388634769
 H          2.7082365451        4.3661266413        2.2015034066
