  114
       -193.43281755
 O         -1.6359607348       -3.8228203683        2.8085606858
 H         -1.6493373748       -4.0659664291        1.8452494001
 H         -1.8887353091       -4.6209132740        3.2739511518
 O          5.8532526209       -1.2769315217       -0.6304471276
 H          5.4486472429       -1.6014233155        0.1858808317
 H          5.6307720927       -0.3330548931       -0.6402228699
 O          5.0044562509        1.3287653054       -0.1654499555
 H          5.6744883190        1.7845314254        0.3436304165
 H          4.1853644539        1.3333455945        0.3804746984
 O         -1.4085152775        3.8800139659        0.4671756407
 H         -0.5806241248        4.4075133832        0.3919346492
 H         -1.7767277163        3.8221680010       -0.4197612136
 O         -2.3069205591        2.6148732451       -2.1012661694
 H         -2.5686023818        1.8851223013       -2.6888490014
 H         -1.3340212200        2.5835809447       -2.1341333582
 O         -5.0294001042        2.4413059365       -1.1687820788
 H         -4.1547587290        2.7507948548       -1.4350277048
 H         -5.0124022413        2.3190997324       -0.2034211722
 O          1.0516080948        4.8827161063        0.2869389808
 H          1.4244679613        4.5773357245        1.1311669566
 H          1.5780553556        4.4716839626       -0.4134264698
 O          0.7185714973        1.6957988192        4.0019516244
 H          1.0185077096        2.5212195364        3.5958773510
 H         -0.1260545041        1.4742596787        3.5702771729
 O         -5.1602285447        0.1016574705       -2.4992263210
 H         -5.1654294794       -0.5603966625       -1.7882189468
 H         -5.2525587028        0.9736252050       -2.0576554669
 O          0.3603130004        2.1215880368       -2.0509477324
 H          1.0941023371        2.7643846405       -2.1158464185
 H          0.6838333531        1.2694729318       -2.4174957445
 O         -1.6727930769       -4.6082367779        0.2937882877
 H         -2.3473377851       -4.2526481893       -0.3192161207
 H         -0.8573194192       -4.5780047684       -0.2238288588
 O         -2.7346732343       -1.4538064488        3.5689315340
 H         -2.3301506732       -2.2933274275        3.2644304882
 H         -2.8856392993       -1.5472051861        4.5102824805
 O          1.2271294176       -0.3119061060       -2.6949941748
 H          1.6260165519       -0.5234144897       -1.8295279721
 H          1.9864103404       -0.3200829278       -3.3083179921
 O          2.2997321955       -0.9220257861       -0.2894751177
 H          1.4836719071       -0.9112985653        0.2426432474
 H          3.0533866094       -0.9894047824        0.3422436830
 O          2.9979433506       -3.8672383804        1.6077711384
 H          2.8146921879       -3.9370128043        0.6534317008
 H          2.1874933768       -3.5398075544        2.0354667627
 O          2.4839566401       -3.4704408394       -1.0800576961
 H          1.6228400822       -3.7454667713       -1.4297567135
 H          2.3906447507       -2.5201517914       -0.8472060986
 O         -5.0350964503        2.0400755190        1.5829833014
 H         -5.8339612942        2.4546154563        1.9099311783
 H         -4.2719439432        2.5563602994        1.9841588065
 O         -3.0280600088        3.3171262049        2.6158110900
 H         -2.5035000884        3.7034743319        1.8940736731
 H         -2.4948872463        2.5603163945        2.9257196986
 O          2.4157821184       -0.2715305994        3.3856791515
 H          1.8110810839        0.4009020147        3.7731191591
 H          1.9054355049       -1.0934375367        3.3490071362
 O          0.8456322730       -2.5605529521        2.7836872823
 H          0.4877365596       -1.9416521407        2.1199575267
 H          0.0935345992       -3.1217379210        3.0172089943
 O         -4.8923929498       -0.6824069358        1.9544064346
 H         -4.1433589692       -0.8972602472        2.5324270130
 H         -4.9719768848        0.2887035405        1.9263693507
 O          2.8577151149        1.5240332071        1.4210934066
 H          2.7921211948        0.8249075683        2.1058912552
 H          1.9718325265        1.5483837195        0.9992901172
 O          4.5197508602       -2.4120224443       -2.6665846608
 H          5.1105064823       -2.0536036159       -1.9671104415
 H          3.8561071185       -2.9397389890       -2.1910705063
 O          2.4406754389        3.7956461080       -1.9817564762
 H          2.5465159022        4.5320613270       -2.5841953862
 H          3.1457790575        3.1353730620       -2.2286244310
 O         -2.8421010597        0.3250405610       -3.6612347555
 H         -3.0058650907        0.4940625975       -4.5893745146
 H         -3.7408038837        0.1813993700       -3.2483136781
 O         -0.0650025949       -4.0399208877       -1.9655218241
 H         -0.2212257011       -4.7751154921       -2.5592660884
 H         -0.4400609999       -3.2537268513       -2.4034244495
 O         -1.6415231096        1.0107908565        2.7984533996
 H         -1.9532633389        0.1770284259        3.1758519028
 H         -1.8456325598        0.9491671755        1.8262682389
 O         -3.1470748724       -3.3950538349       -1.6293874432
 H         -2.5896274393       -2.8655492148       -2.2113791826
 H         -3.8175822714       -2.7998967078       -1.2566165225
 O          0.3323991212        1.7536542247        0.5728406560
 H          0.3543560232        1.8487843571       -0.4078096120
 H         -0.2808379182        2.4488432078        0.8638102134
 O         -5.0600866840       -1.7610291954       -0.4525666018
 H         -4.9648701257       -1.3761130926        0.4539273780
 H         -5.8719223290       -2.2694610190       -0.4350122169
 O          2.1128788967        3.7749870642        2.6176121482
 H          2.7856675196        4.1819273477        3.1624546393
 H          2.5184499650        2.9803082557        2.1940334821
 O         -1.0659149803       -1.7754934339       -3.1535403529
 H         -0.2293733351       -1.2838826795       -3.0496180620
 H         -1.7147302809       -1.0886144461       -3.3858401132
 O          4.2350442268        2.0312310891       -2.6829590398
 H          4.6026319693        1.7510528673       -1.8264193859
 H          3.9875631788        1.2088919659       -3.1421474127
 O          4.1534779158       -1.4970380962        1.5517530400
 H          3.8661219745       -2.4415262094        1.6310089927
 H          3.8739355249       -1.0726693374        2.3712150667
 O          3.5914559849       -0.3561132164       -3.9311119324
 H          3.9633736329       -1.1464340976       -3.4281836862
 H          3.9049514705       -0.4508972067       -4.8299940777
 O         -0.1465857844       -0.8243606388        0.9085870679
 H         -0.0501730163        0.1554664937        0.9290893127
 H         -0.9346188828       -0.9822126623        0.3830036897
 O         -2.4535022883        0.6824794682        0.0484311891
 H         -3.3665043850        0.3943077027       -0.0192754785
 H         -2.3331850669        1.3673606121       -0.6313185466
 O         -4.7659758355       -3.6421115784        2.3775468832
 H         -5.0717390056       -2.7321997116        2.3220429620
 H         -4.0699417906       -3.7458649887        1.7240310906
