  147
       -244.16120024
 H         -3.1429433369        1.0398807945        0.2554603779
 C         -2.4903852618        0.2108378848        0.5332737455
 H         -1.8288615159        0.5416401416        1.3340791413
 C         -1.6931755145       -0.2301436205       -0.6871096177
 H         -1.0272720924        0.5685681184       -0.9993693497
 H         -2.3720586688       -0.4712998336       -1.5027065443
 O         -3.2377750776       -0.8645445358        1.0465854677
 H         -3.7906780876       -1.2202852859        0.3105344709
 N         -0.9168978380       -1.4341187385       -0.3463915217
 H         -1.5558774988       -2.1935434261        0.0052566081
 H         -0.2474479222       -1.2044754242        0.4269447252
 H         -0.4171860730       -1.7753563530       -1.1866071499
 O          3.1400042482        1.1018321787       -3.7122923572
 H          3.6095713955        1.7970695664       -3.2175176250
 H          3.7335711006        0.3266834495       -3.6840944133
 O          3.5309831612        0.2842146863        2.5786628253
 H          3.6985066956       -0.6280404774        2.8533302966
 H          2.8274509878        0.6218045726        3.1739759723
 O          1.6000724054        1.1914580324        4.1957725571
 H          1.4706058730        2.1427088256        4.0524826201
 H          0.7164005808        0.8002016793        4.2163410447
 O          2.1452836326       -1.6040045054       -0.5735634817
 H          1.7072992853       -2.4282771047       -0.2760771112
 H          2.4379795590       -1.8270091453       -1.4788739870
 O          4.5174509138       -2.2451220814        0.5131190306
 H          4.4733802096       -2.3253267977        1.4768879583
 H          3.6574460768       -1.8555553116        0.2375764043
 O          0.7006819079        1.0870743248       -5.2100766510
 H          1.6070443728        1.0372209049       -4.8737728594
 H          0.2626702684        1.7797313456       -4.6854820865
 O          0.9786283204        1.6565467542        0.5406907776
 H          1.1857144997        1.3423139261       -0.3622812177
 H          0.1721439343        2.1925345152        0.4579144959
 O          6.3991170038        2.0358117804       -0.3106203898
 H          5.9392740028        2.1570216723        0.5647946827
 H          7.3288912836        2.1933249924       -0.1477453318
 O          1.3049222912       -4.0570998379       -0.0099605863
 H          1.3234812976       -3.9582747374        0.9624146641
 H          2.1501793846       -4.4448546871       -0.2814567686
 O          5.1472373676        2.4142265356        1.9707430757
 H          4.7978399166        1.5875717110        2.3420994732
 H          4.3498929702        2.9345592564        1.7667122194
 O          0.2657051333        4.8459793819       -1.8082043204
 H          1.2171576476        4.8034321983       -1.5706494034
 H          0.0642581054        5.7652148027       -1.9854589827
 O          3.9188930484       -4.4115188638       -0.9160045368
 H          4.2739966193       -3.6632475539       -0.3770338708
 H          4.6073547002       -5.0741590638       -0.9625150391
 O          1.1454828933        0.7786560992       -1.9999045593
 H          0.8648389203       -0.1386000472       -2.2011942062
 H          1.9297514117        0.9260747709       -2.5764906554
 O         -2.7276545312        2.2533204034        3.5382459678
 H         -3.0748375361        2.5527884383        4.3794560328
 H         -2.1840731613        3.0127051379        3.1796929753
 O         -1.0113414035       -0.8931999534       -4.9750347608
 H         -1.1578565523       -1.2645743846       -5.8457530882
 H         -0.3564803702       -0.1529453486       -5.1064100217
 O          3.8206541922       -2.4383428924        3.1788247055
 H          4.1320404666       -2.7728912582        4.0196411136
 H          2.9152331420       -2.7852860258        3.0423572363
 O         -4.7934477994       -3.5002545497        1.5187768270
 H         -5.5337790182       -3.4109449355        0.9054590723
 H         -4.9323536984       -2.7900588111        2.1669237726
 O         -2.6164412687       -2.4322080384       -2.9227456307
 H         -2.2368615949       -2.0672947997       -3.7244504467
 H         -2.0000011818       -3.1135554295       -2.5971240550
 O         -3.7754020564        3.3971031503       -0.5867281137
 H         -4.1342133697        2.6131351637       -1.0668330809
 H         -4.1533466478        4.1747241419       -0.9983183032
 O          2.9054734964       -2.7259237270       -2.9002698997
 H          3.6521754361       -2.1640258305       -3.1827388883
 H          3.2803494465       -3.4697216261       -2.4025469127
 O          0.3761258763       -1.6797888806       -2.7694126234
 H         -0.1339228552       -1.5361671798       -3.5828729375
 H          1.1450125110       -2.2239439049       -2.9962530801
 O          6.0605969217       -0.5944537297       -1.1159565711
 H          5.5932901209       -1.1040863860       -0.4339092984
 H          6.0916907057        0.3300334632       -0.8080934785
 O         -4.8974855902        2.3762282505        1.7962636059
 H         -4.5160839762        2.8918776697        1.0713917471
 H         -4.1709375298        2.2264621168        2.4248413442
 O          3.4979368992        0.6986174419       -0.1015720737
 H          2.9014412907       -0.0095402841       -0.3753045567
 H          3.5455702550        0.6414548283        0.8690762969
 O         -6.9352853993       -2.3810717786        0.0875819117
 H         -7.8860842822       -2.4569817547        0.0082572764
 H         -6.7425863318       -1.4698457170        0.3672255092
 O         -5.4718016617       -1.2716058569        3.0269939627
 H         -6.3294199172       -1.1699011581        3.4401494202
 H         -5.4967273516       -0.7307218400        2.2095123862
 O         -2.6787899177        0.9564352456       -3.5397566335
 H         -2.2741151847        0.2423806262       -4.0483543539
 H         -1.9801773121        1.6225432130       -3.4238032976
 O         -0.4673532835        2.5302458499       -3.1873721391
 H          0.0953563816        1.9149158178       -2.6644541963
 H         -0.2781923305        3.4142929119       -2.8476735658
 O         -1.1058158368        3.2985456803        0.0036411466
 H         -2.0532525170        3.2871959839       -0.2211200014
 H         -0.6768222689        3.8982185832       -0.6307133263
 O         -1.2439633663       -3.9124876682        3.2139793208
 H         -1.5784782496       -4.6585317628        3.7120371144
 H         -1.8151138833       -3.1418421257        3.4358229783
 O         -2.8021364556       -1.7747053260        3.5159158318
 H         -3.7024620012       -1.7076318172        3.8539449022
 H         -2.9000241201       -1.4907944413        2.5795696812
 O          2.7154285628        3.5223127000        1.3310345159
 H          2.1870271234        2.7395732792        1.0498151776
 H          2.7294903370        4.1158101673        0.5642207335
 O         -2.2648092318       -3.5722731003        0.6561085430
 H         -1.8070212151       -3.8169300615        1.4755450170
 H         -3.2198659545       -3.5525752517        0.8867483319
 O          4.1807959093        2.6264888858       -1.7262717932
 H          3.8231620306        1.9345608520       -1.1140865915
 H          5.1181572024        2.6418440205       -1.4741514896
 O          1.3006978056       -3.1403472702        2.5202161714
 H          1.0973064689       -2.2153784293        2.2623664060
 H          0.4819224288       -3.4778654322        2.9181191619
 O         -4.5309556841       -1.6364389171       -1.1641277557
 H         -5.2859416524       -2.2249292635       -1.0734034514
 H         -3.9422776093       -2.0051644357       -1.8445169280
 O          0.5533967982       -0.6752248765        1.7956984541
 H          0.9679109396        0.1379412688        1.4463568534
 H         -0.0063662881       -0.3738635909        2.5437234339
 O          4.8786704833       -0.9528673191       -3.3868575113
 H          5.3261030889       -0.7945172647       -2.5002734595
 H          5.5851811555       -1.0763035936       -4.0206451078
 O         -5.9464005509        0.1562003893        0.7213011177
 H         -5.4437985003        0.1329228023       -0.1051953895
 H         -5.6915600151        1.0067059942        1.1430901914
 O         -0.9622532708       -4.1948884684       -1.6669494935
 H         -1.5578115667       -4.2686951228       -0.9060063346
 H         -0.0749529309       -4.2475308609       -1.2883135357
 O          2.8678668738        4.7903207410       -1.1077628719
 H          3.3602696193        3.9727701513       -1.4048278297
 H          3.4368064791        5.5349883481       -1.3043588518
 O          1.3313048396        3.8845758417        3.5609554048
 H          1.8901333368        3.8252938643        2.7500756526
 H          1.7678356408        4.4925897917        4.1578589870
 O         -0.9891754205        0.2033868716        3.7952765932
 H         -1.5827134551        0.9759032140        3.6943859965
 H         -1.5889577325       -0.5537083692        3.9203499073
 O         -4.6852147248        1.2183809524       -1.8006246432
 H         -5.4956818513        1.1726209761       -2.3089593932
 H         -3.9594088750        1.0147726860       -2.4296747757
 O         -1.2304046894        4.1551277121        2.5934351639
 H         -1.1378680186        3.9177716609        1.6524432490
 H         -0.3423366687        4.0903756243        2.9848333539
