  189
       -320.70353621
 O          0.2526872383       -1.3338513547        1.7139445885
 H          1.1211402011       -1.4870908682        1.2925047185
 H         -0.0637870496       -2.2063341073        1.9762832482
 O         -0.4996631704        0.3528184104        3.7029656440
 H         -1.2267773120       -0.1280021398        4.1310091636
 H         -0.1333103584       -0.2533094133        3.0277363181
 O          4.8179650034       -2.5615760093        3.9106776838
 H          5.1437897356       -1.6537878353        3.8707687761
 H          4.9213545898       -2.9286099414        3.0217699625
 O         -1.6686099391       -3.7679255143       -3.9818484118
 H         -0.8931309483       -4.0647797988       -3.4937487055
 H         -1.4449947760       -2.9202715586       -4.4000169041
 O          3.9427977660        2.4186384378        0.2262508476
 H          4.4401417720        2.5967506779        1.0484473398
 H          3.0093025194        2.3129095067        0.4761532671
 O         -7.2399858423        3.6244516943        0.0871547239
 H         -7.9525689728        4.2047199837       -0.1795663024
 H         -6.8616316083        3.2628814821       -0.7476593320
 O          2.1827580712       -2.3514522583        3.7036496077
 H          2.2318260114       -1.4791180084        3.2534556555
 H          3.1009124511       -2.4970598976        4.0179383052
 O          0.3860096305       -4.3971312436       -2.0756808979
 H          1.1206661713       -4.7195704471       -1.5231342604
 H         -0.3494339680       -4.2249481905       -1.4579913072
 O         -6.6380916285       -2.1321017996        0.0916768216
 H         -6.5108441494       -1.5969380447        0.8993709692
 H         -7.4639366646       -2.6061290500        0.1967767470
 O         -4.0377535932       -3.4715599695       -2.7944164858
 H         -3.9513699114       -3.6667470230       -1.8578295158
 H         -3.1753065551       -3.6802205376       -3.2187946781
 O          0.9676261448        1.8739820231       -4.4006668153
 H          1.2978229506        2.5652971881       -3.7854922912
 H          0.5820720675        2.3338800057       -5.1450065829
 O          4.0722401155        1.2450944615       -3.0739914495
 H          4.1866043427        2.1940817020       -2.9166654840
 H          4.8601706349        0.8173290797       -2.6955949142
 O         -3.5664630350        2.8631638698       -3.0402535894
 H         -2.9373812158        3.5774861428       -3.2070033941
 H         -3.2018835834        2.0865592403       -3.4936309757
 O          1.9085350855       -4.5676586868        2.3169621731
 H          2.4424255657       -5.1713582065        2.8344591101
 H          2.0152344829       -3.6812211433        2.7620954799
 O         -6.5696536827        1.9088761365        2.1348435732
 H         -5.8636271050        2.5695800230        2.2844627882
 H         -7.1817278915        2.3735519671        1.5427344171
 O          4.2125880456       -2.0422187310       -2.5003549176
 H          3.2369270861       -2.1664371577       -2.4977499951
 H          4.3758113827       -1.2740916720       -1.9206343847
 O         -1.4124077192        4.6249532147       -0.2139637135
 H         -2.0617847787        3.9283103830       -0.0215467205
 H         -1.4329874021        4.7244712306       -1.1846909428
 O         -2.3718414809        0.5362100536       -4.0250314750
 H         -3.1371929847       -0.0309762078       -3.8178838137
 H         -1.7973886028       -0.0451785282       -4.5483183965
 O          4.0815782889       -0.7465187886       -4.9542431716
 H          4.1276679880        0.1370512308       -4.5545950924
 H          4.2975104094       -1.3527827115       -4.2258268208
 O         -1.1122602273        4.1612717100       -2.8668474434
 H         -0.2529743339        4.5089655933       -3.1248675182
 H         -0.9354861039        3.2286769074       -2.6066681954
 O          7.5636235680       -2.3103603151       -1.2888319247
 H          8.4156971565       -2.7244758254       -1.4258109999
 H          6.8836051178       -3.0170850362       -1.3233477945
 O         -6.3521407179       -0.1937682088       -1.9234749769
 H         -6.5859147694       -0.9777969080       -1.4055247071
 H         -5.7125347363       -0.4948956653       -2.6006964115
 O         -0.2939947069       -2.8787165043        4.7608609214
 H         -0.4965246289       -3.3480185462        3.9357872160
 H          0.6132510940       -2.5503408006        4.6387430846
 O         -4.5604668616       -1.0896892563       -3.7199173312
 H         -4.9194881830       -1.2518815942       -4.5931962474
 H         -4.3384373858       -1.9855552524       -3.3469616250
 O         -0.7110137351       -3.9227047703        2.2274209105
 H         -1.5277163781       -4.4350442604        2.4386654731
 H          0.0709469863       -4.4979738627        2.2516534813
 O          6.4517801301       -0.0410427862       -2.5483800179
 H          6.8361971142       -0.7903723824       -2.0687582644
 H          6.7855883638       -0.0938322831       -3.4451368088
 O         -6.4000140485       -0.8037083596        2.5252557787
 H         -7.0319684853       -1.0017918356        3.2182773869
 H         -6.4080785014        0.1690127631        2.4235570755
 O          1.5656339631       -2.0832923251       -2.4555961846
 H          1.4013061096       -1.7114343079       -3.3525130733
 H          1.0655354964       -2.9309760453       -2.4028107778
 O          1.4474776878       -0.7562317136       -4.7382237966
 H          2.3940563854       -0.8183810025       -5.0107462073
 H          1.2934835591        0.1949411868       -4.5661338451
 O          2.4481587074       -4.8679020302       -0.3431276351
 H          2.8792474496       -5.7220436202       -0.3421065669
 H          2.2388487099       -4.6627647738        0.5902134292
 O          1.7014252046        3.8832007923       -2.7757970456
 H          2.6582570440        4.0107436893       -2.7748543556
 H          1.4685786969        3.8148399287       -1.8243404623
 O         -3.9350324235       -2.1742239423        2.7001454700
 H         -3.3721730049       -1.7956271268        3.4005056745
 H         -4.7535650784       -1.6549457132        2.6943051628
 O          4.3783534733        3.7785963251       -2.0628673660
 H          4.2133600735        3.3747404797       -1.1837671407
 H          5.0974564239        4.4009381477       -1.9597543157
 O         -5.0255441205        0.7545636997        0.2086920353
 H         -5.5240865894        0.4827585192       -0.5853455900
 H         -5.6586045378        1.1739564015        0.8139355857
 O          5.2534757911        2.8593595788        2.5394123385
 H          6.0440212287        3.3965558995        2.5968592018
 H          4.5600108668        3.3392163419        3.0721995320
 O          2.7518462423        0.0488183309        2.6681679140
 H          2.4204976207        0.7151806832        3.3125934813
 H          3.7261921102        0.0398064540        2.7812976611
 O          1.6472252432        1.9143760031        4.2095837842
 H          0.8464089681        1.3841299538        4.3439146983
 H          1.3825523342        2.6424263512        3.6255337878
 O         -2.8490788638        4.4746632785        3.3837660083
 H         -3.6661725659        4.5111672288        2.8694425795
 H         -2.3992825421        3.6663412426        3.0870704345
 O         -1.4880955311       -3.5973051184       -0.3337463332
 H         -2.4510997333       -3.6449216397       -0.2394462564
 H         -1.1308136020       -3.6655377994        0.5715117579
 O         -2.3695347795       -1.2963837101        4.7708160741
 H         -2.7348968751       -1.2009808674        5.6504608962
 H         -1.6054963160       -1.9305837674        4.8515130868
 O          6.3030275346       -1.2106924828        0.8881886396
 H          5.7655574729       -2.0169107198        1.0709740069
 H          6.9741222554       -1.4786122067        0.2442854357
 O          1.4615047066        1.2029147230        0.6688403682
 H          1.6613992504        0.8296332066       -0.2148085507
 H          1.9423597329        0.6830542427        1.3462889717
 O         -0.8161151501        5.8642617677        2.2894402658
 H         -1.0661121421        5.7131402003        1.3673925029
 H         -1.5772421583        5.5404465084        2.8172058224
 O         -4.1767065051       -3.4026425915        0.2395115383
 H         -3.9854859968       -2.9093566183        1.0560928299
 H         -5.0623310571       -3.0943497509       -0.0112551168
 O         -6.2559144044        2.6164754008       -2.1779689411
 H         -5.3763714804        2.7737023681       -2.5499873326
 H         -6.4132861507        1.6643463859       -2.2249782612
 O          1.0516469995        4.0767844469        2.5008973966
 H          0.4285176478        4.8543166395        2.5711665424
 H          1.2848739495        4.0527737169        1.5512041897
 O         -0.7300376595        1.6005350737       -2.1093139370
 H         -1.2481176098        1.1058564491       -2.7757727427
 H          0.1944065041        1.2978651025       -2.2049308188
 O          1.7577516228        0.5633393872       -1.8543955408
 H          1.6158150935       -0.3794624408       -2.0257397664
 H          2.5705437017        0.8285507096       -2.3326081841
 O          4.6297451176       -3.2734935178        1.1694462437
 H          4.8847895513       -3.7626800199        0.3727230776
 H          3.7636829539       -2.8663286487        0.9557216435
 O          5.4720984770       -4.0255960835       -1.3698789769
 H          4.9380510179       -3.3126640890       -1.8200545010
 H          5.4164060584       -4.7979547057       -1.9320629522
 O          2.4591890635       -1.8871301802        0.2909724289
 H          3.0735466839       -1.1546941306        0.0477375409
 H          2.0958246105       -2.2172901503       -0.5387681108
 O          3.4237139936        4.1497658652        3.8851264550
 H          2.6116366547        4.3165653080        3.3679991601
 H          3.1457051546        3.5986299645        4.6229134084
 O          1.0609831478        3.7135822745       -0.1597294453
 H          1.0062774515        2.7642919403        0.0390874395
 H          0.1363430739        4.0610309212       -0.1643186426
 O         -3.3052841368        2.6839894706       -0.3249452592
 H         -3.4101754926        2.8124542908       -1.2860485647
 H         -3.8831490503        1.9166928570       -0.1141330624
 O          4.2907622505       -0.1597190025       -0.5000453767
 H          5.0936958428       -0.4360850178       -0.0111356176
 H          4.1966747988        0.8000869492       -0.3441130542
 O          5.3891418236        0.1487397579        3.0549991636
 H          5.8922784937       -0.2198781727        2.3114941030
 H          5.4651497823        1.1151996720        2.9887859179
 O         -4.8704666937        3.9366429249        1.5448058167
 H         -4.2461571579        3.5839328731        0.8813513442
 H         -5.6526789056        4.2064955362        1.0441855971
 O         -3.1440344281       -4.8380685566        2.6264872609
 H         -3.5201416192       -3.9728881588        2.8637246999
 H         -3.5836764798       -5.0943034026        1.8107302382
 O         -1.2320926121        2.4902170249        2.3293522316
 H         -1.0275675497        1.7564415722        2.9486981908
 H         -0.4417838094        3.0612359024        2.3302575760
 O         -1.0152725135       -1.4508620911       -5.4105177083
 H         -0.0717631162       -1.2502700162       -5.2300631994
 H         -1.0888403742       -1.6313777782       -6.3478896506
 O         -1.3562754482       -1.1884105840       -2.0684339866
 H         -1.4612387761       -2.0149323098       -1.5919762850
 H         -1.5414740904       -0.5068268629       -1.3989871337
 O         -3.6539737035        0.7359155857        2.7318267456
 H         -2.9433828597        1.3768170799        2.6587581560
 H         -3.6947612701        0.3420896462        1.8510593561
 O         -1.8107925912        0.1219262173        0.3615959538
 H         -1.6777314732        1.0744094861        0.3497002192
 H         -1.0407311652       -0.2594185160        0.8029204314
