  191
       -320.32033356
 H          2.8470256725       -1.2244779262        0.5359542837
 C          3.3743059021       -0.2717778163        0.5949680117
 H          4.0991370897       -0.3176638010        1.4137991156
 C          2.3831629220        0.8574225883        0.8760447818
 H          2.9303989975        1.7739357610        1.1052291316
 H          1.7952062466        0.5813589507        1.7475383118
 N          1.4857807307        1.0277333408       -0.2641846347
 H          0.8148772124        1.7612359184       -0.0746726900
 H          2.0447524886        1.3375396417       -1.0539933409
 O          4.0300582215       -0.1345017597       -0.6513362991
 H          4.6208801150        0.6512419148       -0.6351255889
 O         -0.6644365774       -5.8863297024        2.1993382071
 H         -1.3924928166       -5.7275590313        1.5727246667
 H         -0.7258289735       -5.1838658897        2.8564417889
 O          2.5735755875        1.3303484009        4.0789574697
 H          3.3175841708        1.7515140291        3.6026998923
 H          2.8391856404        0.4024047456        4.1896242449
 O         -2.0241773149       -1.7367652617       -2.2183504242
 H         -1.9489551287       -1.4437031191       -1.2844101947
 H         -2.5554061436       -2.5580563683       -2.1883128739
 O         -5.8102209119        4.7614474838        1.0461182328
 H         -5.3942232747        4.7047274398        0.1802501695
 H         -5.0976561561        4.9187792365        1.6796445638
 O          5.2639092451       -0.2330979319       -4.3793093910
 H          4.2901037194       -0.1465338744       -4.3292653690
 H          5.4571479944       -1.0848711099       -3.9617868137
 O         -4.5151670907       -2.1388994744       -0.1685551142
 H         -5.4672528890       -2.1015181671       -0.0069715914
 H         -4.3647405960       -2.7936289987       -0.8584376581
 O          1.3043465749        1.4604101174       -5.6825577774
 H          1.1206021004        2.2421300468       -5.1359837997
 H          0.4690171960        0.9865597605       -5.7882103272
 O          3.1983845881        2.4620464785       -2.2572632072
 H          4.0092691957        2.5414560990       -2.7826793082
 H          2.4629100856        2.8843940658       -2.7541880575
 O         -0.7463669379       -4.7906646087       -2.9406439651
 H          0.1358428432       -5.1871054484       -2.7982536453
 H         -0.6013485438       -4.0829524522       -3.5924014975
 O         -0.2524003628        0.7548909858       -2.9071932647
 H          0.1177251797       -0.0245560347       -2.4431786544
 H         -0.5372607449        0.4579665386       -3.7948404078
 O          0.9524228269        3.0961365444       -3.4842077838
 H          0.3619659789        3.8236088228       -3.2220466532
 H          0.5012440920        2.2789915694       -3.1850471844
 O          2.5856149256       -3.1164455796        1.8116261273
 H          3.5426693520       -3.2501694027        1.7106850065
 H          2.1700916840       -3.9213960425        1.4178367738
 O          0.7096299528       -1.2313224167       -1.3352842767
 H          1.0080180198       -0.4531332696       -0.7819011387
 H          1.5135479288       -1.6239394546       -1.7085208174
 O         -3.4320741076       -1.0087629899        2.4588734342
 H         -2.8918476843       -0.9219984352        1.6395925565
 H         -3.7097779113       -1.9381252895        2.4671605255
 O          1.3275242743       -5.0586362027        0.5517119706
 H          0.7979845450       -5.5975358689        1.1689720288
 H          0.6570189566       -4.4522522575        0.1516841285
 O          0.8582167151       -2.5705914525        5.4705679309
 H          0.2338368716       -1.9640836090        5.8751030469
 H          0.3410838958       -3.1144808458        4.8563101207
 O          5.6896454651        2.1708791978       -3.4233850325
 H          6.2601919968        2.6270458372       -4.0411798940
 H          5.5980660539        1.2412910459       -3.7669013785
 O          2.6603463556        0.1642311319       -3.8113276789
 H          2.1858969017        0.5966548240       -4.5616375916
 H          2.8076884084        0.8475339687       -3.1369598172
 O         -5.5738636449        0.4074009871        1.7768983119
 H         -6.0702459347       -0.2296607570        1.2355596617
 H         -4.8286892573       -0.1110746305        2.1527357316
 O         -0.2796904363        3.5294344663        0.2093784459
 H         -0.9717560663        4.2204196993        0.0956875957
 H          0.5144094494        3.9923553508        0.5390244270
 O         -1.3160889828        1.8983109359        2.0085175226
 H         -2.2337656509        1.8395962422        1.6673203295
 H         -0.8470119890        2.4881313884        1.3752296187
 O          0.1462653560        0.2760521053        3.5241242676
 H         -0.3587710033        0.8809252495        2.9478594161
 H          0.9732360025        0.7247691723        3.7809401330
 O          0.1961046909       -1.8024048261        1.8382700717
 H          0.2943267114       -1.0732150239        2.4855647578
 H          1.0708918664       -2.2009882580        1.7188622475
 O         -1.1013042139       -3.3507379356        3.5803240117
 H         -0.6533537517       -2.9143073835        2.8179408589
 H         -1.4287046441       -2.5823491593        4.1155640375
 O         -1.4212003945        3.4497705786        4.1321836454
 H         -1.6987633743        2.9564901921        4.9044411041
 H         -1.4087494799        2.8123607465        3.3732091335
 O         -2.5673676251       -4.7457076716        0.5110474059
 H         -1.8298214786       -4.1464222757        0.2793648601
 H         -3.1016856723       -4.2861529856        1.1787111536
 O          5.5201467882       -1.7489920708        3.7278226758
 H          4.5859179939       -1.6091970107        3.9742244022
 H          5.5051057303       -2.4085980574        3.0148628397
 O         -3.7682871739        2.2748377108        1.0905714486
 H         -4.4695014516        1.6128517531        1.2512433224
 H         -3.8886721163        2.6217326203        0.1842214439
 O         -8.6122784028        0.5648652713       -0.5530071432
 H         -8.5641210931        1.2103436095        0.1661420845
 H         -8.1144089463        0.9713665570       -1.2772783921
 O         -7.2775599598        2.4649903470        1.1035557243
 H         -6.8886292120        3.3512170311        1.2300056931
 H         -6.7174978610        1.8436572060        1.5937587346
 O          1.8232226468        4.7391729299        1.3869462241
 H          1.8272395337        5.6928450804        1.4730206404
 H          1.6945416434        4.3845128070        2.3072847434
 O          2.5985671371       -2.3542039993       -2.9494951677
 H          2.6165359138       -1.4448211745       -3.3157859377
 H          3.5285081459       -2.6302505232       -3.0026933155
 O         -1.8700674244       -1.0866573064        4.6896309710
 H         -1.1118930719       -0.5393891989        4.4153522102
 H         -2.5465177791       -0.9287104034        4.0017750377
 O          4.6583033449        2.3900903095        2.6923963842
 H          5.3701815333        1.7313759683        2.6159507287
 H          4.6214457824        2.8720581063        1.8568288661
 O          1.8395719284       -5.1313816930       -2.2294491068
 H          1.8312061180       -5.2539859691       -1.2672901637
 H          2.1375159233       -4.2289815968       -2.3949807418
 O          5.3354737931       -2.7553865357       -3.1255291986
 H          5.7982256971       -3.5458361692       -3.4016820922
 H          5.6284987922       -2.5487404070       -2.2070380250
 O          5.9241647854        1.8263873221       -0.7325160904
 H          5.5014759268        2.6005534615       -0.3370052521
 H          5.9437428225        1.9874482392       -1.6929651755
 O         -1.0585664447        4.7087633708       -2.6917203003
 H         -1.7068017519        4.0329829916       -2.9435952546
 H         -1.3790414282        5.1174182695       -1.8823431419
 O         -3.3378287854       -4.1066277952       -1.9904666794
 H         -3.1655902496       -4.4755122715       -1.0970290691
 H         -2.7181356806       -4.5782411689       -2.5606125719
 O         -7.1518665718       -1.4301322805        0.4079025752
 H         -7.7409019700       -1.9409131444        0.9633600484
 H         -7.7174304406       -0.7499847582       -0.0360180034
 O          2.8290043567       -1.4377434241        3.9820725411
 H          2.2319572535       -1.8131333699        4.6564802177
 H          2.7038929004       -2.0072869914        3.2033134013
 O         -1.8571641373        1.5307418552       -0.9745880568
 H         -1.3669385349        1.2400011790       -1.7737849741
 H         -1.3929058230        2.3191745623       -0.6747380209
 O         -2.8472782020        2.7182143143       -3.5099788213
 H         -3.2213522336        3.0287461196       -4.3344199788
 H         -2.8905451167        1.7297361989       -3.5447296747
 O         -3.6217247872       -3.7275479977        2.8119789396
 H         -2.6871000092       -3.6871897547        3.1343425168
 H         -4.0986155401       -4.3014970899        3.4096728996
 O          6.5839282961        0.4086544044        2.7219093368
 H          7.2569401437        0.6869286925        3.3436412888
 H          6.1691739332       -0.4074712370        3.1199378292
 O         -0.1173768217       -2.3650322905       -4.0333085746
 H         -0.6654119190       -2.0787537204       -3.2704905052
 H          0.8029903562       -2.3745362788       -3.7380589880
 O         -2.3479237931        5.1714399503       -0.0744176639
 H         -2.6525212055        5.1935168119        0.8552354814
 H         -3.0494589250        4.6965256919       -0.5500784767
 O         -4.2168769018        3.5480000352       -1.2881153779
 H         -5.1069633423        3.1499988630       -1.4433096054
 H         -3.6775247445        3.2245384451       -2.0344050444
 O          5.2915305982       -3.4340677498        1.5337566117
 H          5.7036478632       -4.2952402893        1.4699894625
 H          5.5353377020       -2.9341975686        0.7114854400
 O          4.0272270562        3.6453127387        0.1140957812
 H          3.6351438452        3.2896373702       -0.7059019001
 H          3.3053713595        4.1158330513        0.5623744018
 O         -0.4733049184       -3.5001480582       -0.5769097489
 H         -0.6310752939       -3.9539356576       -1.4338350290
 H         -0.1069005830       -2.6161756129       -0.7859535736
 O          7.5339128639       -0.2046961506        0.2180873378
 H          7.1526348542        0.5645795742       -0.2330070627
 H          7.2886916340       -0.0691722035        1.1515014948
 O         -1.8184448414       -0.8196840331        0.3218932825
 H         -1.6685926655        0.1027682676        0.0413110746
 H         -1.0015391700       -1.1569687540        0.7292254295
 O          5.8666401704       -2.0460050448       -0.6271617232
 H          6.6286465332       -1.4650567701       -0.3688059683
 H          5.1112941409       -1.4113943725       -0.6766075694
 O         -4.3818970951        0.3454175464       -1.1841269011
 H         -4.3454955058       -0.5347853304       -0.7560960347
 H         -3.5309335099        0.7751465294       -1.0028749612
 O         -3.3316779750        4.5941248773        2.3789043116
 H         -2.7124741301        4.4797270955        3.1126863706
 H         -3.5148125776        3.6910540084        2.0401618740
 O         -1.0058793051       -0.1599158851       -5.3211081068
 H         -0.6820653965       -1.0580154359       -5.1053694010
 H         -1.9598189811       -0.1702994643       -5.1848308195
 O         -6.4079710966        2.0789580813       -1.4224558188
 H         -6.7408720944        2.2688240610       -0.5180739903
 H         -5.7853381154        1.3298552244       -1.3287598971
 O         -3.2991712558        0.1011624632       -3.6505949040
 H         -2.7391731919       -0.5630245623       -3.1843697367
 H         -4.0476104872        0.1963515404       -3.0392114012
 O          1.3096521617        3.8715817666        3.8063939484
 H          1.7315928058        3.0395848585        4.0580976280
 H          0.3607816614        3.7956795377        4.0056308184
