  526
       -891.58097309
 H         -0.2573536985        0.5519411404        0.1097775572
 O          1.2944352467        2.9699008952        2.0634917609
 H          1.7171892521        3.0747386048        1.1930790740
 H          1.0671954733        3.8663351508        2.3583760518
 O         -1.6341620791        7.2197856962        3.3239981804
 H         -2.3703454998        6.5713699056        3.3812523919
 H         -1.0810696609        7.0623100506        4.1060209396
 O         -5.2327823505        4.4597138112        5.1715880708
 H         -5.7245650476        5.1994452043        4.8088980054
 H         -5.0286986132        3.8788778938        4.3959758396
 O          0.3377414896       -0.3362512234       -0.8368079711
 H          1.0082425746        0.2926243537       -1.1763658100
 H          0.7780932690       -0.9139768595       -0.1551436855
 O          1.5767558863        5.8851491663        0.2153755917
 H          1.6636935838        6.6819219881       -0.3420668108
 H          0.6991637157        5.9372667582        0.6504118541
 O         -0.6228031559        1.1611429021        0.8771929385
 H         -1.5746071947        0.8434447832        1.1066337744
 H         -0.5838774522        2.1266661682        0.6230076094
 O         -2.4814270434        2.9012718409        1.8550493523
 H         -2.7646536552        3.4733181288        1.1249261723
 H         -1.9343409981        3.4486613648        2.4622947143
 O         -2.3986158696       -0.4923114672       -1.3470575176
 H         -2.5201050072       -0.5896356434       -2.3079782244
 H         -2.3439369857        0.4699639135       -1.2079692265
 O         -3.3576208316        4.6372874396       -0.0281508135
 H         -4.0684426035        5.2971691535        0.0569394166
 H         -2.7068202486        5.0626740711       -0.6057733356
 O         -4.3251474855        6.3839675660       -2.6076280639
 H         -3.6405215770        5.6759227959       -2.6854955842
 H         -5.1478756676        6.0176510527       -2.9333894688
 O         -0.8082234650       -0.9712442257       -8.7855834335
 H         -0.8470336138       -0.0070860955       -8.6965525856
 H          0.0938441152       -1.2321587908       -8.5469008969
 O          0.7661090101        0.3128774767        2.9953596412
 H          1.1024297916        1.1076455876        2.5601313630
 H         -0.1883900410        0.4869781805        3.1181961651
 O         -2.0663334734       -1.0197564343        5.9411963357
 H         -2.9081111469       -0.8090704016        6.3627316432
 H         -2.2786805297       -1.1397906480        4.9948984833
 O         -2.8256769564        0.0970774662        1.3886029170
 H         -3.6183688316        0.6713819581        1.2538656351
 H         -2.9228129395       -0.6822394551        0.8119372051
 O          1.2070926828       -1.6452227606        1.2162280445
 H          1.1029132155       -0.9498912209        1.8999699719
 H          2.1680360478       -1.7407027828        1.0473194145
 O          3.7825387311       -1.8305473651        0.5124688745
 H          3.8469484077       -2.5709357325       -0.1159878271
 H          4.1565227828       -2.1311599852        1.3698946721
 O          2.5702373048        0.7582976503        0.4249713163
 H          2.9719013918        0.2402617602       -0.3002990483
 H          2.6993174806        1.6803217241        0.1914610965
 O         -0.1521695604       -5.5354511887       -2.2677062968
 H         -0.4244195222       -6.3564808981       -2.7158215131
 H         -0.7203269428       -5.4031708026       -1.5032699325
 O         -6.7633270594        3.6231993022        1.6801587309
 H         -7.4937207914        3.0185743992        1.8864664131
 H         -5.9771547072        3.2151806467        2.1143644356
 O         -1.7014200024       -4.7139704669        3.5781498016
 H         -2.5829992474       -4.6385301586        3.1697199844
 H         -1.7718464049       -4.2889756386        4.4628499660
 O         -3.1531364702       -2.4306436612        0.4660758092
 H         -3.1648614005       -2.5516028826       -0.4919390358
 H         -2.2473768151       -2.6772369386        0.7624367162
 O          3.8035602264        0.4403578401        2.7595451637
 H          3.3685369415        0.4443724579        1.8841303918
 H          3.3213606528       -0.2256165040        3.2681762010
 O          2.6697364714       -5.9478409565       -1.5478022731
 H          2.3584465927       -6.1994416736       -2.4303764198
 H          2.6141150909       -6.7976683178       -1.0543274181
 O         -0.5834124637        3.5559168712       -0.0646780595
 H         -0.6998598947        4.3304063411        0.5128514012
 H         -0.1703223200        3.8726937015       -0.8950084166
 O         -3.1598768507       -0.2716967029       -3.8933905171
 H         -3.7207028567       -0.9612860255       -4.2794794496
 H         -2.3768438053       -0.2521451901       -4.4799815884
 O         -0.3213838670       -0.7856945860       -3.4431343005
 H          0.4418896194       -0.9870790328       -4.0163551415
 H         -0.0068563369       -0.8857574222       -2.5274974279
 O          1.6345290052       -2.4066232571       -1.9954799902
 H          1.5667486364       -2.9798187379       -2.7709253064
 H          1.5706216033       -2.9943108740       -1.2237278438
 O          4.9347813279        2.1459796062       -0.8606427409
 H          5.2393696556        1.2193194641       -0.7605192546
 H          4.6591408520        2.4301190284        0.0320183618
 O         -1.0890469839        4.1141474260        3.7085140827
 H         -0.4495776918        4.8073704201        3.4649566393
 H         -0.5705956374        3.5102719474        4.2878877069
 O         -2.5208876219       -1.7004579904        3.3912645060
 H         -2.5917395494       -0.8863169016        2.8541761343
 H         -3.0834234421       -2.3717845535        2.9949999460
 O          2.4128109988        3.4777123116       -0.3521155007
 H          1.9816197306        2.9848582958       -1.0805392548
 H          1.9985615741        4.3626602369       -0.2876129783
 O          1.3978154644        1.7678773627       -2.0656904228
 H          2.0641422681        1.5842116912       -2.7405344862
 H          0.5534657658        1.8988778675       -2.5484825645
 O          2.6799033980        2.5165120842        4.2529638389
 H          2.0001443342        2.7312749791        4.9182178852
 H          2.2118651269        2.6341177348        3.3992703780
 O          3.4034139050       -0.4517052382       -1.7935316321
 H          2.8390025203       -1.2515290230       -1.8066309783
 H          3.1954911535        0.0115439803       -2.6205347066
 O         -1.9044177370       -5.4517775967       -5.2025933766
 H         -1.7518610557       -4.6423213602       -4.6700179931
 H         -1.3521887987       -5.3439660791       -5.9846378837
 O          0.1703222330        4.4527743909       -2.4175495991
 H          0.5494622926        3.9059987365       -3.1316295656
 H         -0.7609320555        4.5951779306       -2.6616016635
 O          4.9647649030        3.7131022305        4.7036587102
 H          5.3142686775        3.3210537019        5.5041332883
 H          4.1305594139        3.2172016955        4.5007823291
 O          2.8157746424       -7.0243890122        4.6835118794
 H          2.7365335891       -7.4487218506        3.8025697836
 H          1.9747964836       -7.1407754930        5.1262824916
 O          2.9399357858        0.7355083750       -7.6754360932
 H          3.5972996906        0.3289694263       -7.0656546260
 H          3.2146712573        1.6548681625       -7.7629766798
 O          7.8648925417       -1.9535969183        2.1241587639
 H          7.6288524915       -2.8362836473        2.4315822691
 H          7.6566971599       -1.3482902252        2.8407454971
 O          5.7901095918       -0.2788618807       -0.1869906707
 H          6.1166013536        0.0934592816        0.6534028768
 H          4.9941857257       -0.8223310818        0.0375488074
 O         -5.0073518124       -0.7244589611       -0.9148987498
 H         -5.4271022881       -0.6658946138       -1.7869214816
 H         -4.0368491751       -0.7035186853       -1.0802942581
 O          0.0335998326       -2.2267560886        4.1007124910
 H         -0.0383806425       -2.2318096265        5.0742312269
 H         -0.8458936667       -2.0013486141        3.7479817451
 O         -3.6398049384       -5.2668878004       -1.6122126437
 H         -3.7985649382       -4.3148701112       -1.7909397150
 H         -2.9084300052       -5.2801015664       -0.9528507952
 O          0.9500547563        3.5209221229       -7.4914317702
 H          0.6498342411        4.3124564011       -7.0352377227
 H          1.8931626097        3.4293776127       -7.2758725043
 O         -2.4815136362        4.5298351413       -3.2208553879
 H         -2.2436673005        4.9574146822       -4.0751510585
 H         -2.8974893196        3.6857040337       -3.4661479612
 O          5.7754194083       -0.5690603903       -3.0947150903
 H          6.6245312770       -0.1262597602       -2.8988598394
 H          5.2141079666       -0.4430336018       -2.3111734353
 O          2.5026296995       -4.0209355306        6.6916178061
 H          1.9821854499       -4.8225699260        6.8182275273
 H          3.0323338099       -4.1789977613        5.8918197045
 O         -4.0371873861       -4.0091159114        2.3912394639
 H         -4.7637120481       -4.6485847262        2.2385132969
 H         -3.8726853635       -3.5883995494        1.5252456280
 O         -5.6074822079        1.9844342937        6.3720510188
 H         -6.3179490751        1.6286590855        5.8083021650
 H         -5.5914471086        2.9362307419        6.1851193768
 O          4.5396016318       -6.1921111640        1.2433496189
 H          4.8781345844       -6.4019806298        0.3579733918
 H          5.2704215021       -5.7557373818        1.7282493200
 O         -6.8044292596       -1.9766910293        5.0396514264
 H         -7.1393950318       -1.0679630830        4.9326945290
 H         -7.1265761721       -2.4575962196        4.2629441957
 O          6.5369328397       -4.1074157646       -0.3065362120
 H          5.6620002965       -3.8744599500       -0.6910814869
 H          7.1132845126       -3.3242614339       -0.4558897746
 O          1.2032954126       -4.2829632319       -0.1026465085
 H          1.8585123319       -4.0719971153        0.6083839949
 H          1.6339397330       -4.9427731130       -0.6882935319
 O          6.5553660863        1.1917921632        1.9716720274
 H          5.7357391612        1.7206403766        1.9215935610
 H          6.4728251013        0.6357682141        2.7590023876
 O         -6.1523832209        6.0169164869        2.7394044319
 H         -6.1537198305        6.6409522721        2.0097729365
 H         -6.5028799460        5.1728197511        2.3813435856
 O         -0.8776784696        5.8939045363        1.1535970206
 H         -1.0934648812        6.4392238325        1.9415946202
 H         -1.2531863867        6.3346898178        0.3681640554
 O          1.1995986248       -4.5939160557        3.9241998666
 H          0.9058508628       -5.0019332263        4.7603210368
 H          0.7594064434       -3.7204906279        3.8981857880
 O          2.6527878882       -1.5789710713        4.2613600523
 H          1.7202209563       -1.7491955461        4.0507553059
 H          2.7385630049       -1.5657728201        5.2234842116
 O         -1.7348045870       -5.4708359723        0.1821728385
 H         -1.3657608862       -4.6683473755        0.6036794386
 H         -2.2841124885       -5.9193260982        0.8592884520
 O          1.1867147212        8.0704100587        2.1977538788
 H          2.0908403884        8.1502199780        1.7898669065
 H          1.1603975902        8.6467412954        2.9607986859
 O          1.5670889210        3.3696415838       -4.4127648037
 H          2.4633141583        3.2678006328       -4.0314663006
 H          1.4175440206        2.6026745527       -4.9808345876
 O         -1.4219963753        1.2497353928        8.1807881327
 H         -1.9089306017        1.3466247218        7.3294797719
 H         -2.0457323597        0.8734677212        8.8003788143
 O          1.2776849778        0.2097123629        8.0382343876
 H          0.5232012883        0.5557760808        8.5258269310
 H          0.9779702774        0.2456081859        7.0974247045
 O          1.7902178365        4.9696562237        6.9481142328
 H          1.1092263868        4.9442864143        7.6273701280
 H          2.2319449750        4.1018233911        7.0164615705
 O         -5.4267634633       -1.4180085272        1.9404975050
 H         -6.0399605126       -2.1405947701        2.1844346512
 H         -4.8197623204       -1.7657225776        1.2757737504
 O          3.9177090729        3.0224469705       -3.1857552590
 H          4.1770721991        2.6638842378       -2.3160735827
 H          4.4759892344        3.8133289279       -3.3255360683
 O         -0.9528962601        1.8463937779       -8.6418371887
 H         -0.9620028389        2.0802060454       -9.5697502490
 H         -0.3078009898        2.4467981349       -8.2251011073
 O         -1.8130353346       -2.6652259487       -6.9812215336
 H         -1.6509873045       -2.2151558174       -7.8314554611
 H         -1.0866537492       -3.3099359705       -6.8784575628
 O          3.9181072623       -2.4781840106       -3.8419907550
 H          4.4829510024       -1.7178772321       -3.6377830388
 H          3.1165496361       -2.1132929234       -4.2597647089
 O         -2.8679867331        1.9038742742        6.0111829332
 H         -2.7227068478        2.8741917610        5.9504243305
 H         -3.8319834480        1.8032571607        6.0980870132
 O         -4.6686334978        0.2208710034        3.8567299000
 H         -4.8434399953       -0.4326078443        3.1509820947
 H         -4.4845802191       -0.2429310819        4.6881327212
 O         -1.7215291400        0.9604416477        3.7195317501
 H         -2.1130465100        1.2336338218        4.5648257429
 H         -2.0882157275        1.5472328783        3.0510822136
 O         -4.7441669987        2.7930353804        3.1862545265
 H         -4.7356233576        1.8549785228        3.4410361463
 H         -3.9057608548        2.9149341926        2.6846184986
 O         -8.2828195695       -2.5876085896        0.0162436410
 H         -8.5823780151       -2.5674514583       -0.9007952962
 H         -7.3449369166       -2.9095472808       -0.0416705001
 O         -7.2046130118        0.7009462146        4.5277744114
 H         -7.7672441521        1.0888057553        3.8394951037
 H         -6.3162699221        0.6009287980        4.1204912797
 O          6.5261796956        5.5468781027        0.8033966315
 H          6.9703267710        6.3619487239        1.0311686427
 H          6.6398540352        4.9443958105        1.5825506631
 O         -1.0691059972       -3.0237427869       -1.2133808880
 H         -0.2801965409       -3.3681286298       -0.7757990618
 H         -1.0651360412       -2.0632337653       -1.1234431655
 O         -1.7837948746        6.5508159060       -1.2600721354
 H         -2.2744888790        7.3730729963       -1.2328663173
 H         -1.0595177417        6.7014258017       -1.9027884702
 O          0.2244445829       -4.4054858310       -6.6049967170
 H          0.5349867897       -4.3467894548       -5.6752870595
 H          1.0109427686       -4.3721077417       -7.1545504071
 O         -0.8861810037       -7.5678120795       -3.8639402063
 H         -1.6053801572       -7.9815775654       -3.3641128059
 H         -1.3027253645       -6.9086974674       -4.4548356687
 O         -3.5309224511        5.4420753888        2.8828254560
 H         -4.4719504426        5.6980399575        2.9160075030
 H         -3.3270477094        5.2756906710        1.9565045844
 O         -3.8864405699       -2.7611726270       -2.4093904367
 H         -4.6367393437       -2.5085207306       -2.9507845317
 H         -3.1111726490       -2.8432304676       -3.0094772831
 O          3.7298585155        5.4841690953        1.8392729066
 H          2.8655451606        5.5579590070        1.3853464145
 H          3.5937014937        5.7222954953        2.7624516120
 O         -5.0453384246        2.7794032611       -1.7413383962
 H         -4.8883653333        2.7693033190       -2.6966443971
 H         -5.5189571249        3.6064763299       -1.4926179625
 O          4.1686907911       -4.6996326643        4.5645537482
 H          3.6982127970       -5.5584156143        4.6052778899
 H          4.9444041798       -4.8617573402        4.0201307920
 O          1.5753976535       -1.6988234548       -5.0553400664
 H          1.5632836594       -1.6298226051       -6.0315770090
 H          1.3053292494       -2.6049547945       -4.8389261826
 O          4.4285785320        2.8745284766        1.6731012044
 H          4.2423664188        3.8260199468        1.8007011773
 H          3.9179730969        2.3631294679        2.3147054675
 O          0.8380946540        1.0998427377       -6.0557378638
 H          1.5190133673        0.9624849975       -6.7492859587
 H          0.2889744442        1.8543652051       -6.3348326112
 O          4.5954964379       -0.3347269827       -5.9008967130
 H          5.0834349885       -1.1719891646       -5.9862106169
 H          5.2168199165        0.3724067677       -5.6381854978
 O         -7.2921076150       -3.2458669723        2.5919270381
 H         -6.9474227219       -4.1421175582        2.4316376255
 H         -7.9511061190       -3.0881911516        1.9054906392
 O          6.9706982061        3.9158532380        2.8238270553
 H          7.1025714054        3.0011102141        2.5425040115
 H          6.2554984067        3.9006361804        3.4835514829
 O         -7.4897148036       -0.1389556379        0.6663579144
 H         -6.6512581918       -0.4005419374        1.0963717605
 H         -7.9295415886       -0.9880488931        0.4401579488
 O         -4.9741353076        1.4017959745        0.7192912115
 H         -5.1812836165        0.6658424415        0.1116156320
 H         -4.9131213887        2.1893010221        0.1743726200
 O         -3.2489513325        1.2620749025       -6.8493198608
 H         -2.5994033491        0.5857349909       -6.5247645372
 H         -3.0276896988        1.3919596500       -7.7744060843
 O         -1.6144769903       -3.1665887770       -3.7509736398
 H         -1.2274268613       -2.2917737807       -3.9283410627
 H         -1.2863559386       -3.3749390403       -2.8468965157
 O         -4.4032811692       -8.5725856691        0.0330160835
 H         -3.9634865380       -8.0596689249        0.7367807794
 H         -5.1757345326       -8.0452502994       -0.2102416931
 O         -6.0986623713       -5.6372200976        2.0238369630
 H         -6.0581921537       -5.9099296202        1.0757340748
 H         -5.9532828653       -6.4147255908        2.5670161622
 O          1.1065706667        5.4890429717        3.0874957929
 H          1.7793906444        5.5232372192        3.7921373142
 H          1.0108092304        6.4035154798        2.7721823560
 O          0.3169071326        0.2469174429        5.6347661416
 H          0.6198511529        0.1091886809        4.7147607015
 H         -0.5637083170       -0.1640771605        5.7255955493
 O         -2.8328502894       -7.9462802685       -2.0101621135
 H         -3.4094507177       -8.3820375860       -1.3415474113
 H         -3.1362851617       -7.0282333331       -2.0250482858
 O          7.6812769085        2.7825292370       -3.5994386766
 H          7.6078956677        3.1445869802       -2.6993550694
 H          8.0651731802        1.9058027849       -3.4591564410
 O         -0.8727936612       -3.2887884784        1.4924315965
 H         -0.9574496314       -3.7055840853        2.3691339274
 H         -0.0511670048       -2.7614442972        1.4688058322
 O          5.5136631031        2.0024517936       -5.0867618941
 H          6.3686318626        2.2828370955       -4.7180169731
 H          4.8692888676        2.1642677655       -4.3660855875
 O         -2.9278634488        8.3506162054        1.1305872810
 H         -2.0927498240        8.5681058925        0.6791292668
 H         -2.6660642728        8.1545396057        2.0398345056
 O          1.6646403195       -1.7012362911       -7.7171394581
 H          2.2166237164       -0.9478955453       -7.9655169409
 H          2.2383363119       -2.4886796002       -7.6806096535
 O          0.2876258883       -2.4295752368        6.7672191390
 H          0.4332007254       -1.7244944043        7.4015745885
 H          1.0630840196       -3.0161941401        6.7828418172
 O         -0.3165487983        6.3712667213        5.5630327688
 H          0.4658075188        5.9221586711        5.9089709219
 H         -1.0774026909        5.9223358208        5.9476153170
 O          5.7398723278        4.9835358734       -3.5069884376
 H          5.6864680451        5.1724315595       -2.5580688650
 H          6.5494063955        4.4846375197       -3.6581107362
 O          6.9667839834       -2.9992712469       -3.2308813490
 H          6.5083324382       -2.1340246788       -3.2336994197
 H          7.5809767435       -2.9524137166       -2.4942030125
 O          6.3121017585       -0.4524761463        4.2010589444
 H          5.6815490936        0.1555148249        4.6377411949
 H          6.3547680936       -1.2133228891        4.8125430658
 O          6.2807103907       -4.4653734582        2.3340363149
 H          6.5029481454       -4.3282771191        1.3896895849
 H          5.7068043483       -3.7007848628        2.5570152063
 O         -0.7259740085        3.8959211806        7.7789984933
 H         -0.9508537300        3.0231696845        8.1394341478
 H         -1.5158720429        4.2160462799        7.3199255918
 O          4.8308377840       -2.3067686912        2.8681959390
 H          5.3342029060       -1.5335216473        3.1835571441
 H          4.0136374378       -2.3262499828        3.3967264259
 O         -8.2643753254       -2.4192452864       -2.8402479203
 H         -7.5455156875       -1.7660103056       -3.0253666162
 H         -8.9741362217       -2.2254498869       -3.4510065502
 O          2.6328408122        5.8009229934       -2.8013563044
 H          3.3195730671        5.5230886361       -2.1667507084
 H          1.8034381264        5.3557386636       -2.5640433252
 O          4.1442134832       -3.6977423648       -1.3894043523
 H          3.7163643678       -4.5714071458       -1.4345548391
 H          4.0831449567       -3.3156788954       -2.2847476603
 O         -2.6141186183        4.5702152977        5.8154939485
 H         -2.1818057126        4.5228137304        4.9285215640
 H         -3.5615171080        4.7267461549        5.6396760375
 O         -4.0564270891       -2.4950363367       -5.3266868711
 H         -4.2814163610       -3.3946797282       -5.0297911741
 H         -3.3018868181       -2.6033481572       -5.9280020996
 O          0.3483161232        2.8689588683        5.5047176063
 H          0.1039911875        3.2829221308        6.3513169245
 H          0.2226175482        1.9022675850        5.6015728535
 O         -6.3166848399       -0.6724659516       -3.2950244128
 H         -6.0824643066       -0.4001927057       -4.2024658366
 H         -6.7747409778        0.0958201431       -2.8661089023
 O         -1.5793374153       -7.0952449013        4.7881082056
 H         -1.3144478098       -7.8091536259        4.1973032362
 H         -1.5626003059       -6.2798720867        4.2354128057
 O         -4.8750837101        6.8668279958        0.0539534576
 H         -4.7006154887        6.9842168384       -0.8948835659
 H         -4.2420057757        7.4619993958        0.5104859606
 O          0.9026249253        5.7730126333       -5.3792648168
 H          1.7317721403        6.1685767151       -5.6628484775
 H          1.1531575898        4.8954031201       -5.0109912910
 O         -4.7372714207       -0.6890258401        6.4599900432
 H         -5.4778401192       -1.2668493096        6.2315917287
 H         -5.1188106501        0.1555614831        6.7309416545
 O         -2.0983850511       -3.7647461001        6.0173197227
 H         -3.0639476946       -3.7931479393        5.9222702149
 H         -1.8729610891       -2.8357878078        6.2044612746
 O          3.2594468796       -1.4008592886        6.9797190853
 H          2.7003058349       -0.8659796704        7.5627409531
 H          3.0634560086       -2.3301110799        7.1722033627
 O         -5.8742056593       -6.3104648167       -0.5352098869
 H         -6.5341180850       -5.9475601385       -1.1362273129
 H         -5.0246395055       -5.9343623051       -0.8589236146
 O         -3.1877784592       -6.9343976785        1.8686054240
 H         -2.4268625177       -7.5074105481        2.1109576264
 H         -3.6502498728       -6.7392800998        2.7067755440
 O         -1.4137342303       -0.3214202091       -5.8500048998
 H         -1.4478201953       -1.2202137020       -6.2415944709
 H         -0.5164352436        0.0476375068       -5.9585736516
 O         -8.5388863739        1.6279005330        2.3018157193
 H         -9.4825430903        1.6601107803        2.1514066080
 H         -8.1674651244        0.9627061665        1.6663396314
 O         -0.8819180743        1.8030267259       -3.4001017394
 H         -1.5572345915        1.9402827937       -2.7041648060
 H         -0.7759471181        0.8319136519       -3.5110958176
 O         -3.8780757360        2.3088240434       -4.1629727653
 H         -3.6500843459        1.3715175665       -3.9687335445
 H         -4.0411687777        2.3300564204       -5.1088233276
 O          0.1395028232       -5.5510427217        6.2207405799
 H         -0.4823740653       -4.8364926428        6.4252813686
 H         -0.4309251260       -6.2745250925        5.9017755687
 O          0.5379949631       -6.0671322473        1.8578933304
 H          0.6076076031       -5.4599943143        1.0975043195
 H          0.7099639823       -5.5179845784        2.6587762817
 O          7.1140156826        3.6689466997       -1.0875887829
 H          6.2757221974        3.1543551208       -1.0305738865
 H          7.0157794732        4.4086908997       -0.4655052355
 O          8.2196669229        0.3326627083       -2.4401364980
 H          8.7209069581       -0.4818146639       -2.3678211004
 H          8.2947791561        0.7525737368       -1.5466766977
 O         -4.6615966218       -3.8025447824        5.0438155819
 H         -4.4971525152       -3.7024998704        4.0912219836
 H         -5.4450922645       -3.2716412637        5.2323666359
 O          2.8487965384        2.4614577814        7.2727285590
 H          2.3224730198        1.7750270650        7.7061310915
 H          3.5012355313        1.9914576254        6.7291635428
 O         -7.2975258858        1.1825948253       -1.7469763243
 H         -6.5474557408        1.7944441689       -1.6545867533
 H         -7.4070275495        0.7574405047       -0.8767198020
 O         -1.7812892937        5.4555988229       -5.6102184452
 H         -0.8740387377        5.7971127671       -5.6007490750
 H         -1.6655199983        4.5109545341       -5.8607854666
 O         -5.7588980218       -3.2579498782       -0.2775410630
 H         -5.4445627162       -2.3761111813       -0.5619882699
 H         -5.8973993979       -3.7773904232       -1.0844946951
 O         -6.4904489742        4.7284810350       -0.7624177045
 H         -6.7063237308        4.2656376960        0.0721490277
 H         -6.1400746913        5.5843383138       -0.4920159161
 O         -0.4340518090        8.7058759197        0.1040206123
 H         -0.0853491330        9.5443501253       -0.1947299063
 H          0.1169095626        8.4309577657        0.8656432915
 O          1.1331197655       -4.1543243528       -4.0839466872
 H          1.9505034823       -4.6735997237       -4.2793804178
 H          0.6078178331       -4.6661577282       -3.4286227322
 O         -1.2658825834        2.8807829691       -5.8139576352
 H         -2.0010700153        2.3906318910       -6.2121764323
 H         -1.1547802923        2.5296134208       -4.9040741663
 O          5.5152923290       -2.9083766180       -5.9181904313
 H          6.3786595732       -3.2194008759       -5.6416881309
 H          4.9468596536       -2.9840479035       -5.1178592581
 O         -0.6181371623       -7.9658639842       -0.3994957461
 H         -1.3278315214       -8.1592165924       -1.0352182411
 H         -0.7891832290       -7.0564279722       -0.1076997180
 O          8.4490276419        1.5431595423       -0.0991229257
 H          8.1219266636        2.4174252286       -0.3842116031
 H          7.9417123548        1.3135999193        0.6890066975
 O         -5.4681955237       -0.2021739537       -5.8315842149
 H         -5.1058519019       -1.0990126840       -5.9037601739
 H         -4.8137102785        0.3791753314       -6.2450732727
 O         -0.1223970207        7.3341301709       -3.2021126405
 H         -0.9247562838        7.6885032537       -3.6340248379
 H          0.3237581924        6.7923190067       -3.8716771680
 O         -4.2781466382       -6.5036957724        4.3013077571
 H         -4.4979974874       -5.6548710802        4.7143511004
 H         -3.4942808730       -6.8381362084        4.7650997736
 O         -0.9280355592       -8.2495820600        2.3622505766
 H         -0.3686092516       -7.4608899347        2.1984914140
 H         -0.8087049625       -8.7958459193        1.5784201954
 O         -2.5581775951        7.8167600840       -4.2602216086
 H         -3.2532228192        7.4982963345       -3.6639896720
 H         -2.5139825638        7.1764308964       -4.9805200018
 O          1.9691668233        7.9801532533       -1.4405067981
 H          2.3809908097        7.3709705589       -2.0857540654
 H          1.0920573379        8.1430685246       -1.8122685012
 O          3.4992403461        8.1532514724        0.9537534684
 H          3.8758740097        7.2683568005        1.0857595257
 H          3.1912728494        8.2016947390        0.0381921740
 O          3.5742658243        3.2884009239       -6.6263331225
 H          3.5997241370        4.1747883952       -6.2171750012
 H          4.3118040952        2.8119092383       -6.2092802259
 O          3.7004642990        5.6596818575       -5.2777423144
 H          3.2997204733        5.6896591486       -4.3843090966
 H          4.6450148391        5.7119370772       -5.1048931863
 O          2.9301433179       -4.0917529231        1.8304428008
 H          2.5679264283       -4.2457340896        2.7136397834
 H          3.4987751603       -4.8514167773        1.6183306160
 O          3.2123221030        5.7956961632        4.7245104441
 H          2.7848224373        5.7400240020        5.5906842308
 H          3.9602910004        5.1732991003        4.7731057209
 O          3.1577401110       -3.8812599995       -7.0546742199
 H          3.1145016721       -4.5624807289       -6.3618565448
 H          4.0523014841       -3.5233998613       -6.9609541168
 O          2.7561207131        0.6443791252       -4.1569517476
 H          1.9645252314        0.5704762803       -4.7075447496
 H          3.4749928919        0.2852837488       -4.7036830034
 O          1.8650599400       -7.6246200739       -3.5747246034
 H          2.0534839063       -8.2724476717       -2.8892110848
 H          0.9189091553       -7.7075680202       -3.7752822557
 O         -4.4419887266       -5.0464099034       -4.3493421935
 H         -4.1471607304       -5.2394865132       -3.4471535852
 H         -3.7306536064       -5.3942092716       -4.9092499425
 O          7.8977205073       -1.8773447144       -0.6456465945
 H          7.1395016802       -1.2503077184       -0.6106303900
 H          8.2653056922       -1.8338652509        0.2480040249
 O          3.1761032893       -5.5643422564       -4.8542212509
 H          2.8956944572       -6.4647695836       -4.6404502220
 H          4.0395135123       -5.4234238605       -4.3987848963
 O          5.9733654090       -6.5510912902       -1.1116987685
 H          6.3889090897       -5.7040433641       -0.8362291888
 H          6.6564215376       -7.2198684855       -1.1213527518
 O          4.3599017662        0.8530453176        5.5781840514
 H          3.7672182132        1.1130571732        4.8467815461
 H          4.0019330140        0.0465523411        5.9675184310
 O          2.5619072002       -7.7956382291        2.1023375432
 H          1.8128356378       -7.1730729490        1.9730920845
 H          3.3576304711       -7.3069054108        1.8258427069
 O         -6.6081376375       -4.5532164101       -2.5513721419
 H         -6.1365670986       -4.7428448612       -3.3696040335
 H         -7.2995373164       -3.8996236729       -2.7503128247
 O         -2.4648536947        2.1454168581       -1.2971681622
 H         -1.9504386732        2.7991801602       -0.7888249547
 H         -3.3766234395        2.4755216369       -1.3716303588
 O          2.0604065311       -8.3217672650       -0.5782406336
 H          1.0848903035       -8.2603279439       -0.5717030556
 H          2.3138893862       -8.4338928205        0.3519068205
 O          5.4394566193       -5.2640150621       -3.5523106606
 H          5.5129949425       -5.7896882804       -2.7427159463
 H          5.9797596105       -4.4639319104       -3.4245260890
 O          4.5110738277        5.0963874607       -1.0000998125
 H          5.0565419747        5.3912164186       -0.2565428757
 H          3.9556890044        4.3760704259       -0.6547206681
 O          5.6590522201       -2.5320784060        5.7869397639
 H          5.0402516553       -2.1323030377        6.4052256618
 H          5.1993064288       -3.2827567489        5.3862171649
