  84
       -142.48261837
 O          1.5134060722        3.4605962338        1.0839946316
 H          1.3651972466        3.0079383601        1.9301236499
 H          2.3449456612        3.1332402092        0.7310692836
 O         -0.3163661891        3.8631308093       -0.7986195331
 H          0.3032491002        3.7230817981       -0.0419887279
 H         -0.7310054332        4.7152309372       -0.6585467934
 O         -0.9979832460       -2.5003411612       -0.4132916378
 H         -1.8062473053       -3.0356774722       -0.4426031693
 H         -0.6197945863       -2.5718841691        0.4717144928
 O          3.4658284875        0.3957379048        0.5811251091
 H          3.7470761943        1.2960785816        0.3590060320
 H          4.0410016747       -0.2070667817        0.0707396563
 O         -1.2940734621        1.0328179112        4.3406223054
 H         -1.2624208939        0.0652762247        4.4201048563
 H         -2.1572521506        1.2282740642        3.9451465186
 O         -3.8394007248        0.9830193422        3.0416130191
 H         -4.5321649708        1.4777559127        3.4814894530
 H         -3.9244648833        0.0468160754        3.3706612946
 O          1.8875154387        3.5471994076       -2.4418488315
 H          2.5345079868        3.4894154418       -1.7265793395
 H          1.0399211888        3.7564081211       -2.0189248996
 O          4.9592499283        1.1585426105       -2.5505915918
 H          4.9941691911        0.2935139989       -2.0893378179
 H          5.7722647614        1.2455667795       -3.0504737012
 O         -1.1866891551       -1.7482591227        4.1387662980
 H         -0.8224578142       -2.3455437031        4.7924169418
 H         -0.6439103792       -1.8449830430        3.3178271826
 O         -2.0748661499        0.0865292892       -3.5813076105
 H         -2.5437436791        0.3823990771       -4.3627439549
 H         -1.2280920253       -0.3252564135       -3.9072187048
 O         -3.9180118347       -1.5320265071        3.7771846838
 H         -4.1838896324       -2.0777698761        3.0223316701
 H         -2.9823497076       -1.7268255144        3.9500883721
 O          1.0272797881       -2.2528104021       -2.1114945638
 H          0.2575655528       -2.5580130579       -1.5908591457
 H          1.2109805644       -1.3681448990       -1.7269958872
 O          0.3572132467       -1.8177993346        1.9811816003
 H          1.2302663916       -1.6756523407        2.3723380710
 H          0.1604112394       -0.9584028390        1.5424859101
 O         -4.0412504525       -1.3409046836       -1.9931388660
 H         -3.3553166515       -0.8730981176       -2.4901093549
 H         -4.3001033235       -0.7842490483       -1.2422871275
 O         -4.7551190577       -2.8250280708        1.4440799435
 H         -4.2553525600       -3.2045305546        0.6925578700
 H         -5.6095960992       -3.2585155443        1.4612104435
 O          2.6198242067       -0.5177489517        3.0165046759
 H          2.9259426766       -0.1895986666        2.1495106598
 H          3.3987424754       -0.7638875909        3.5166341311
 O          4.0082594760        2.8286994019       -0.6164820286
 H          4.3648409334        2.3242944696       -1.3782892441
 H          4.6143640920        3.5542734094       -0.4553537004
 O         -3.4727576455       -3.6123583248       -0.8043038626
 H         -3.7079776787       -4.3509639484       -1.3672179812
 H         -3.6991489972       -2.7876216082       -1.3138669973
 O          3.4938648559       -3.1359784775       -1.7626339188
 H          2.5406510762       -2.8963443327       -1.8716596667
 H          3.7146512309       -3.7000369928       -2.5046073089
 O          0.2953829440       -0.7714677202       -4.2781140934
 H          0.5538762809       -1.4579538073       -3.6326784056
 H          0.9851954922       -0.0960922456       -4.2420273987
 O          1.4716345723        0.2268409008       -1.2741217366
 H          2.0707614320        0.3320513523       -0.5138659995
 H          1.8957395898        0.5859498816       -2.0896008059
 O          4.9914764814       -1.1145104707       -1.0878414816
 H          5.8006793490       -1.5266390189       -0.7808047372
 H          4.3985799642       -1.8661933168       -1.3712503591
 O          2.3395045819        1.1818546918       -3.5626797612
 H          3.3047712798        1.1478326513       -3.5305570792
 H          2.1047694109        2.1164834544       -3.3727144013
 O          1.0241830137        1.7807118723        3.2641750777
 H          0.1999842198        1.6455494273        3.7867161048
 H          1.6101017292        1.0417078006        3.4869511962
 O         -4.6083497250       -0.1791766570        0.5272940557
 H         -4.7592937000       -1.0699827152        0.8825031619
 H         -4.3980910692        0.3653308470        1.3002210297
 O         -0.2396371043        0.5337464952        0.9176032783
 H          0.1303681374        0.6010705479        0.0252410059
 H          0.1579835585        1.2045524614        1.4889982012
 O         -2.4521569463        2.0461158526       -0.3441897674
 H         -2.0865152232        1.2835757733        0.1175639937
 H         -1.7053421963        2.5483731307       -0.6924285361
 O         -4.8060918945        3.0799608297        0.6500543689
 H         -3.9169069616        2.8335775120        0.3387850003
 H         -5.3303279044        2.3002838578        0.4558608677
