  87
       -142.30743544
 H         -0.7460727495        0.1895801171        1.2206431644
 C         -0.6317245082       -0.3433487626        0.2757891760
 H         -1.2355920390       -1.2561593184        0.3027997268
 C          0.8153379504       -0.7428040601        0.0491113837
 H          0.9118195509       -1.1985030408       -0.9344203477
 H          1.1207995743       -1.4723334511        0.7949517557
 O         -1.1033046460        0.5350260266       -0.7294636718
 H         -0.7315911301        0.2407106966       -1.5937215055
 N          1.6977931971        0.4309055235        0.1204804728
 H          1.8315043696        0.7417132129        1.1102213573
 H          1.2866716340        1.2535047881       -0.3900321606
 H          2.6243796992        0.2180317219       -0.3250152594
 O          3.8692209093       -0.3297464009        2.9685558822
 H          3.1880129525       -1.0073289359        3.0874668667
 H          3.3956308045        0.5122210454        2.9753406296
 O          1.0350665548        2.8433934003       -0.8556358954
 H          0.8437644133        3.2596781822        0.0044335520
 H          0.2624649425        3.0331295933       -1.4270778742
 O         -2.0829419722       -1.6085546302        3.0905569749
 H         -2.7822515783       -1.4214151445        2.4468142098
 H         -1.5888536682       -2.3811330169        2.7588093093
 O          5.3609838416       -0.8574945028        0.8482306049
 H          6.2842456514       -0.9563868546        1.0818259890
 H          4.8854135468       -0.5897239410        1.6724628145
 O          0.5420019519        3.7137196630        1.6868262886
 H          0.5763463668        4.6155452446        2.0069652617
 H         -0.2920021283        3.3172642010        2.0496609856
 O         -1.4697402055        2.4634124627        2.8015674320
 H         -2.2572111783        2.2193769083        2.2856567991
 H         -1.1561416611        1.6554934576        3.2370639611
 O          1.8027382350        1.4922329423        2.6173606400
 H          1.5110569835        2.3916947782        2.3775125375
 H          1.0890392189        1.1027906781        3.1433405678
 O         -3.3544244525        2.9664663653       -1.0006842375
 H         -3.8199688449        2.4069066069       -1.6448721311
 H         -3.3646967782        2.4937410583       -0.1550778662
 O         -4.1075907992       -1.0152529772        1.2317095849
 H         -4.9351571991       -1.4831411895        1.3526801391
 H         -3.9277641346       -0.9882317223        0.2625321171
 O          1.8572747477       -3.5897882930       -1.5379912907
 H          2.4257015842       -3.4305498357       -0.7677144745
 H          2.0710912042       -2.8898307992       -2.1703464651
 O         -0.4705931232       -3.5761844259        2.1009706052
 H         -0.5113124111       -4.4993860594        2.3549836542
 H         -0.5367506032       -3.5628496712        1.1169611729
 O         -1.1388162020        3.4903115750       -2.2889849243
 H         -1.9355871980        3.2958125551       -1.7247066304
 H         -1.2376444235        4.3955066421       -2.5871664823
 O         -3.4562301509       -0.6139943722       -1.3115067276
 H         -3.9556703969       -0.0356510164       -1.9190910980
 H         -2.6618385438       -0.0800042522       -1.0763802915
 O         -3.7279854138        1.6647161338        1.4629403145
 H         -4.5027233677        2.0658641231        1.8606197156
 H         -3.8708629119        0.6973007992        1.4583684486
 O         -4.2604680816        1.2748414320       -3.0038421088
 H         -4.9308180979        1.4764482580       -3.6569035183
 H         -3.3801685325        1.3422225948       -3.4712245568
 O         -0.3357138404        0.1348091788        3.8819983460
 H         -1.0373851809       -0.5124803269        3.5827266298
 H         -0.3799066562        0.1428698595        4.8401404380
 O          2.4375100128       -1.2737620801       -3.0626481328
 H          2.9203764253       -1.4234245663       -3.8768447618
 H          3.0485025626       -0.8085157770       -2.4575315743
 O          3.7384008463        2.7397577940       -1.3346312493
 H          2.7816702597        2.8909122937       -1.2276748974
 H          4.0785121107        3.4549173047       -1.8723991475
 O         -1.8676012941        1.4994418338       -4.0386688232
 H         -1.5114393812        2.2525475507       -3.5342491237
 H         -1.2639244044        0.7622858224       -3.8583802245
 O         -0.6152601133       -3.5287980210       -0.5265457965
 H          0.2796060151       -3.6667650829       -0.9061048047
 H         -1.1807146841       -3.2925010632       -1.2742437495
 O          3.9735596961        0.0759661163       -1.2655976438
 H          4.1128107218        1.0365596665       -1.3762698918
 H          4.6303792605       -0.2465290854       -0.6205724496
 O         -2.0802622937       -2.4738179584       -2.6750104377
 H         -2.6028837569       -2.9692165514       -3.3061152182
 H         -2.6890781462       -1.8645497283       -2.1996505307
 O          3.2478233506       -2.6793320660        0.6522753711
 H          4.0928485741       -2.2076294832        0.6416579921
 H          2.9546571014       -2.7073590572        1.5668056095
 O         -0.2230254336       -0.5094134687       -3.0651271643
 H         -0.7532675593       -1.3266677403       -3.0722674595
 H          0.7055879122       -0.7665201109       -3.1901360884
 O          1.5289581608       -1.8884880764        2.9793741622
 H          0.9151338197       -2.6089575179        2.7548032254
 H          0.9752424260       -1.2048909572        3.3807725727
