  91
       -147.81897676
 C         -0.5505858588       -0.6350976997        0.8342157382
 C         -1.6279517934        0.0949271465       -1.2371259390
 C         -0.8107756629       -0.2489460484       -2.4751255245
 C          0.8255414769       -0.4355726642        0.3845122322
 H         -0.6364715069       -1.5299236478        1.4533957027
 H         -2.6850437254        0.1530687195       -1.5016395246
 H         -1.2462905183       -1.0963221327       -2.9966633122
 H          1.4491510542       -1.2459323354        0.0632030173
 H         -0.8927880063        0.2467015913        1.3897028067
 H         -1.3124235598        1.0564493544       -0.8282780657
 H         -0.7961480052        0.6022508314       -3.1484736359
 H          0.2084717970       -0.4952845850       -2.1962727036
 O         -1.5379732083       -0.8939909927       -0.2156591809
 N          1.3395330905        0.8557756733        0.2765531828
 H          2.3363778516        0.9053984244        0.4510411860
 H          0.8423235194        1.5300391855        0.8476967365
 O          1.0063001655       -4.3144163276        0.4733851356
 H          0.6132147210       -4.0236943707        1.3112769020
 H          0.3567243229       -4.0773024247       -0.2090696649
 O         -3.5830551116       -0.9823375778        1.7328619571
 H         -2.9629917489       -0.8489647824        0.9969655303
 H         -3.1726306296       -0.5538825777        2.5037264239
 O         -0.7735682148       -3.2538826581       -1.3841934595
 H         -0.9466143634       -2.3965282097       -0.9453701424
 H         -1.6616334997       -3.6126125290       -1.5160050111
 O         -3.5250772499       -3.4777412510       -1.1270921784
 H         -4.2232523063       -4.0967517254       -1.3436780352
 H         -3.9679281641       -2.6009379373       -1.0531389792
 O         -3.0735946384        3.4361109267       -2.5649705115
 H         -2.9973024063        3.6926751425       -3.4838170228
 H         -2.1909505338        3.5404615051       -2.1738345962
 O          1.4265189491       -2.6510898532       -2.9005856907
 H          0.6090149959       -2.8669398712       -2.4058565447
 H          1.5662749560       -3.3696657207       -3.5182196844
 O         -0.4732568869       -3.5397386476        2.6965270350
 H         -0.4464803326       -4.2596666949        3.3282133973
 H         -1.3763593812       -3.5809122803        2.2807636755
 O          4.1976388208        0.9604153205        0.9638483743
 H          5.0182671397        1.0539872466        1.4483307932
 H          4.3724387247        0.2834473092        0.2447798472
 O          1.1810427179        2.8613981309        2.6413708612
 H          1.5025154151        3.4351570604        3.3380913829
 H          0.1974181043        2.7763699475        2.7999693327
 O         -2.5370594683        2.9457272169        0.5481844817
 H         -1.8232463249        3.1019399975       -0.1068774158
 H         -3.0903501663        3.7282458998        0.5145907555
 O         -4.9539655542       -1.2324105018       -0.7000900857
 H         -4.8768268664       -1.1911330162        0.2618160115
 H         -4.8878844173       -0.3072062772       -0.9881182726
 O          4.5492712192       -0.7263377300       -0.9750568642
 H          3.9796506961       -0.4982777750       -1.7402067720
 H          4.2017424585       -1.5908776075       -0.6864614629
 O         -2.8710202339       -3.5908375469        1.6035619710
 H         -3.2500153622       -2.7093606304        1.7937353169
 H         -2.9673100577       -3.6919739686        0.6421002648
 O          3.0513001693       -2.9120617395       -0.6101707609
 H          2.6075724300       -2.8519844272       -1.4697903402
 H          2.4727497430       -3.4880690480       -0.0738754047
 O          1.4248137198        4.3227276924        0.2761709619
 H          2.2522273249        4.0618847181       -0.1510875508
 H          1.3911450721        3.8385956999        1.1186795134
 O         -2.1317796423        0.1277647951        3.8088233518
 H         -1.2717372983       -0.3718285910        3.9075805022
 H         -2.5482323953        0.1027645179        4.6709507579
 O          3.6546079521        2.9869270778       -0.8959625448
 H          4.2866706013        2.7169437838       -1.5901640766
 H          3.8442915905        2.3921780596       -0.1498240251
 O          0.1014692181       -1.1898249315        4.0849353473
 H          0.0360262263       -2.0229272368        3.5891263131
 H          0.9038687708       -0.7343185432        3.7772665569
 O          1.4657936564        1.9597716064       -2.1769678808
 H          1.2933593328        1.4527145763       -1.3481106947
 H          2.2224418308        2.5253670182       -1.9327920208
 O          2.2381965610        0.3270820626        3.1564888865
 H          1.8754513366        1.2196054346        3.0271664878
 H          2.9485915906        0.2423106210        2.5115414218
 O         -0.5961498282        3.5020151121       -1.2690905293
 H          0.0392194174        3.9946611077       -0.7026417068
 H         -0.0124366921        2.9297025819       -1.8031451025
 O         -1.3816086821        2.6200450508        2.9990824623
 H         -1.8481954849        2.7467402766        2.1519649714
 H         -1.6672451212        1.7486796023        3.3338044292
 O         -4.4688728705        1.5119274873       -1.0254242567
 H         -4.2035001327        2.1206471079       -1.7286312615
 H         -3.9462551155        1.7899385904       -0.2608745094
 O          2.9168525333       -0.1592622864       -3.0858906411
 H          2.2992918924        0.5796942170       -2.9106817439
 H          2.3822425834       -0.9614825129       -3.1539770448
 O          5.1681599022        1.5975366632       -2.6868861659
 H          4.4981467895        1.1356781714       -3.2062957886
 H          5.5847254488        0.9139753437       -2.1523323120
