  87
       -142.30849784
 H         -4.4416530391        0.2174342278        0.9460655044
 C         -3.6347786246        0.0427146393        0.2287791809
 H         -3.4117766536       -1.0245082030        0.2113752255
 C         -2.3990190843        0.8230283757        0.6613362308
 H         -2.1128971672        0.5228122756        1.6674347090
 H         -2.6184627147        1.8898962392        0.6570540234
 O         -4.0443195589        0.3837099271       -1.0789814311
 H         -4.2396049301        1.3485671109       -1.0790642659
 N         -1.2859937498        0.5639595053       -0.2745287863
 H         -0.4709519507        1.1697441753       -0.0105376891
 H         -1.5559797288        0.8691743062       -1.2394450630
 H         -1.0508087396       -0.4520652086       -0.2889855729
 O         -5.1662644991       -2.4659878905        1.6273414981
 H         -5.6643734311       -3.0753543373        2.1732013408
 H         -4.2298606481       -2.5494303021        1.8927170088
 O          3.3467652605       -1.3493171461       -1.1851873256
 H          2.7223863999       -2.0624414715       -1.4170689132
 H          3.9743561340       -1.6937224833       -0.5257872478
 O         -1.0509828121       -0.4551112627        3.4187479050
 H         -0.9689795100       -0.6781989694        4.3471575571
 H         -0.2874651528       -0.8726671313        2.9516340922
 O          1.2551107443        1.1495077413       -2.4049264925
 H          2.1193815855        1.3890182976       -2.7493628568
 H          1.3824995946        0.9596816928       -1.4523750250
 O          0.2971555446       -1.1973954751       -3.4206162038
 H          0.6904398406       -0.3455243339       -3.1605285294
 H         -0.6655673660       -1.1011129495       -3.3146596339
 O          5.0078617548       -1.7946172632        0.9217211723
 H          5.5927576430       -2.5242844470        1.1299838393
 H          4.3947427475       -1.7007898355        1.7047192895
 O          1.7611507111        0.2741461060        0.1450101787
 H          2.3583941847       -0.3581810261       -0.3233921910
 H          2.3571682757        0.8550238899        0.6606305289
 O          0.2661397187        2.6466433038        0.3562044924
 H          1.1334536528        2.9223173116        0.0234515782
 H          0.3463025444        2.5328077309        1.3268285190
 O         -2.4896088477       -2.5160969879        2.1605450414
 H         -1.9337837723       -2.5551174231        1.3733408580
 H         -2.1707760264       -1.7660719381        2.6858226105
 O          0.3863892515        1.9082572654        2.9168011504
 H         -0.2817576739        1.2472690094        3.1487927718
 H          1.2152354381        1.6016577407        3.3156891900
 O         -1.7684876086        3.8975422483       -1.0935582149
 H         -1.6292995823        3.3562291395       -1.8818085021
 H         -1.0729366702        3.6350523827       -0.4706227475
 O          3.6388168355        1.8130369835        1.3831394468
 H          3.4307335241        2.6177158845        0.8848010717
 H          4.4802806703        1.4711921033        1.0223235484
 O          3.3483715197       -1.5748874037        2.9232002858
 H          2.4461422789       -1.7787124026        2.6282784528
 H          3.2734431506       -0.7196202034        3.3770592875
 O          4.0891337364        1.2295282789       -1.8773065117
 H          3.8337224341        0.2923958731       -1.8447832658
 H          4.9209344356        1.2583004467       -1.3867838947
 O         -0.8912183520       -2.2035750090       -0.2505801236
 H         -0.1014562219       -2.4996438116       -0.7466927904
 H         -1.6453849976       -2.5978193777       -0.7394452688
 O          1.2334641833       -2.9390462332       -1.7683293476
 H          1.2892916356       -3.8017231611       -2.1806527577
 H          0.9035180977       -2.3085683200       -2.4788909756
 O         -1.3787540638        1.7064083038       -2.7679313602
 H         -0.4118604858        1.6426286005       -2.8422496861
 H         -1.7628315936        1.1485910515       -3.4501583299
 O          5.8370848195        0.6957358763        0.2642687207
 H          6.7495953794        0.8262168401        0.5251633227
 H          5.6116613876       -0.2385115149        0.4640401975
 O         -2.9105538056       -3.3037718748       -1.6473667698
 H         -2.9934504260       -4.2340226973       -1.8577180267
 H         -3.8336284839       -2.9898182441       -1.4264291038
 O          2.7847995928        3.3008182814       -0.7014977208
 H          2.8673325371        4.1218512955       -1.1873282360
 H          3.2341365505        2.6031881281       -1.2259000589
 O          2.8823654497        1.0119671420        3.8210059209
 H          3.2943327515        1.4761735015        4.5508757662
 H          3.2412014358        1.3918907496        2.9938739051
 O         -5.2728166495       -2.3729320879       -1.0692098902
 H         -5.3763425792       -2.4406191760       -0.0977021610
 H         -5.3245044972       -1.4344703651       -1.2772920812
 O         -2.3616367399       -0.8962700066       -2.8582640754
 H         -2.5862103479       -1.8281221566       -2.7239366598
 H         -3.0320700728       -0.4065420670       -2.3488094372
 O          0.8179540778       -1.5110973525        1.8618834381
 H          1.1204009930       -0.7805215595        1.2693619236
 H          0.3037942818       -2.0997436006        1.2975427734
 O         -4.2836771892        3.0356881729       -0.7367641573
 H         -4.9389633109        3.6514009711       -1.0646699745
 H         -3.4098421610        3.4741978837       -0.8380274945
