  192
       -320.54391593
 H         -2.9697959417       -0.8458885844       -0.3876900640
 C         -2.7150231371       -1.0431140877        0.6527806191
 H         -3.6233847465       -0.9908525501        1.2520012277
 C         -1.7185103417        0.0052608622        1.1323944114
 H         -1.5002567344       -0.1180634493        2.1904786448
 H         -2.1540471138        0.9843526724        0.9590985880
 O         -2.1989425030       -2.3592996108        0.7830974925
 H         -1.5193998891       -2.4924484754        0.0730868652
 N         -0.4699394637       -0.1143296637        0.3743675857
 H          0.1764796332        0.6675096819        0.6315747459
 H         -0.6833160939       -0.0682649966       -0.6427315788
 H         -0.0023193679       -1.0297770696        0.5981592109
 O          0.7225666942       -2.4351629981        0.9670490652
 H          0.7051505926       -3.0164449713        1.7453651218
 H          1.6500764955       -2.2730420283        0.7241869389
 O          0.2791032954       -1.1092254168        3.8366861325
 H         -0.0118432489       -0.2579504271        4.1958776996
 H          0.9725426384       -0.8835644554        3.1644208724
 O          3.6020064526       -2.7331706997        2.3439414814
 H          3.2135283302       -2.9449548897        3.2194819586
 H          3.2112776249       -1.8702584056        2.1110690648
 O         -0.6906071990       -2.4704655247       -1.4150971105
 H         -0.0648788020       -3.2065640350       -1.4110750672
 H         -1.4220932239       -2.7179536505       -2.0318294368
 O          4.3889043420        4.4287363562       -0.4462056317
 H          4.8308864253        5.2680975797       -0.5692020972
 H          3.5415480996        4.4624535683       -0.9637388341
 O         -4.0098500707        3.7826718016       -1.1490759659
 H         -4.0020205343        3.5856674882       -2.1214724564
 H         -4.9207829970        4.0171249050       -0.9352843200
 O          2.1301184611       -3.0423260792        4.5600016978
 H          1.4998324014       -2.3025328859        4.5186721149
 H          1.6292583402       -3.7980970742        4.2269096720
 O          1.3525208038       -4.3717925270       -1.5301376477
 H          2.0259026894       -4.3431449842       -0.8041197025
 H          1.3785021246       -5.2577113261       -1.8950337188
 O         -6.6829922857        3.4371584895       -0.3453982361
 H         -6.6630039704        3.1855405789        0.5981856947
 H         -7.4788014053        3.9519117545       -0.4813241917
 O         -2.7124250354       -3.2011333904       -2.9373722045
 H         -3.5731336799       -2.9721793929       -2.5545922469
 H         -2.6494351938       -2.6514977086       -3.7532256385
 O         -2.1220680544        1.5925771170       -4.6066432306
 H         -1.4818947087        2.3240210510       -4.5239637698
 H         -2.1737134067        1.3680534977       -5.5359723417
 O          4.2808571784        0.1246415803       -2.6614952646
 H          4.9780860542       -0.5302816793       -2.7805109818
 H          4.7402738526        0.9349830984       -2.3560232745
 O         -1.2432983740        0.2199407829       -2.2305947367
 H         -0.8034496141       -0.0795148769       -3.0457383183
 H         -2.2030240677        0.2338979917       -2.4156748733
 O          0.3026185975       -4.3559241798        2.8888937072
 H         -0.5265384448       -4.0580489683        3.2827213051
 H          0.0415375767       -4.8971720493        2.1136818614
 O         -4.0846801110        2.1312982727        2.7333304872
 H         -3.8955539975        1.3216895596        3.2295933764
 H         -4.0326116034        1.8766062213        1.7716327488
 O          4.3371847673       -3.3459490373       -1.6391171667
 H          3.8863180691       -2.6736192659       -1.0609120256
 H          4.4422826514       -4.1143960822       -1.0740563512
 O         -1.5442530110        3.1933577211        2.7073108731
 H         -2.4906215547        3.0243212340        2.8619232127
 H         -1.4881234322        3.3262898034        1.7378399892
 O         -3.8586385331       -0.0374000683       -2.6605343327
 H         -4.5632236184        0.6215697237       -2.5523287458
 H         -4.2188164080       -0.8613964440       -2.2923556120
 O          2.4771203297        0.8289338514       -4.4525701100
 H          3.1210478174        0.5644915825       -3.7459988062
 H          2.9356906222        0.7126209655       -5.2852954304
 O         -0.2254321953        2.6106050150       -1.7935593464
 H         -0.3529173571        3.1201142592       -2.6083751836
 H         -0.5900947924        1.7206297834       -1.9883157172
 O          6.5600254206       -0.5747509870       -0.0474464522
 H          6.5456178122       -0.9548292074       -0.9425853681
 H          7.1633976379        0.1868565803       -0.0611505611
 O         -6.1152183554        1.4888854418       -2.3204073845
 H         -6.6736681825        0.7099958439       -2.1810289090
 H         -6.3453253513        2.1305402977       -1.6308749777
 O         -4.4160242376       -3.7349619693        3.3602620075
 H         -4.6468982650       -4.3154052487        4.0858108805
 H         -3.5040651110       -3.4359015277        3.5140439730
 O         -5.0008869014       -2.2966139713       -1.6161305102
 H         -4.9483200476       -2.8721897064       -0.8331084338
 H         -5.9034918868       -1.9446263235       -1.6478972903
 O         -1.8836802698       -2.5918745144        3.4414165551
 H         -1.9353884704       -2.5562571534        2.4625796227
 H         -1.0517287006       -2.1141634069        3.6596533616
 O          5.6085871289        2.2773756264       -1.7409978380
 H          6.3839879640        2.1212909774       -1.1817419688
 H          5.1348013004        3.0134576046       -1.3231073864
 O         -6.6551201605        2.6493862418        2.2834347091
 H         -7.0980120351        3.0612484243        3.0251973282
 H         -5.7099169649        2.5215523479        2.5494073324
 O          2.2641601956       -2.6481599646       -3.5182101809
 H          1.8598893535       -3.2881400663       -2.9054402819
 H          3.2075208789       -2.7205152008       -3.3377245395
 O          0.1567374546       -0.6638374937       -4.4729963433
 H          0.5934262237       -1.5213152270       -4.4412146257
 H          0.8802570401       -0.0100549539       -4.4985870437
 O          2.9636831991       -4.6280892473        0.5630051524
 H          3.2427258903       -3.8939755699        1.1600228442
 H          2.5013160206       -5.2549924210        1.1229375051
 O         -0.5114641132        3.7491551280       -4.2768718330
 H          0.4734350606        3.6967864669       -4.4395703773
 H         -0.8083398494        4.5954306121       -4.6093279265
 O         -6.5239299200        0.2647614587        0.8645420980
 H         -6.1565792259       -0.3507102617        1.5289933524
 H         -6.8332807391        1.0297641073        1.3699103279
 O          2.0704953695        3.5622522985       -4.4121480451
 H          2.2466527404        2.6053968597       -4.3506070648
 H          2.2719621279        3.9356021997       -3.5402002677
 O         -4.4033963891       -3.8954200135        0.5254483432
 H         -4.7110936778       -4.0680325724        1.4220731195
 H         -3.5753042450       -3.3864240560        0.6395427415
 O          7.6489786224        1.8851611968        0.1266875589
 H          7.2266569551        2.0766894258        1.0068919930
 H          8.5227465113        2.2733624382        0.1586451566
 O          3.5836361964       -0.1281586462        4.6550108812
 H          4.5336054758       -0.0078687224        4.4594584493
 H          3.4874283443       -1.0074709335        5.0304520106
 O          1.1750736488        4.1400414435        2.2859618815
 H          0.3256632908        4.0404748469        2.7315874836
 H          1.0160950766        4.7531813778        1.5455155898
 O         -3.1483457239       -0.1908959554        4.0980130283
 H         -2.7754539332       -1.0819312295        3.9589079035
 H         -2.4097425437        0.3443653115        4.4289148680
 O         -0.3524713599       -5.4279871882        0.5412507328
 H         -1.2080386908       -5.5100936361        0.0797648743
 H          0.1975828568       -4.9049600521       -0.0549230102
 O         -5.4151694851       -1.1974519982        2.8159511901
 H         -4.7947712152       -0.7432708509        3.4002124219
 H         -5.2554117565       -2.1436391960        2.9496840846
 O          6.2239850806       -1.9922045286        2.2712324006
 H          6.3725606395       -1.5846076095        1.4008282846
 H          5.3174614210       -2.3544408379        2.2605282864
 O          1.2673320588        1.7532767946        1.0687203324
 H          1.6997685204        1.8735222983        0.1870406741
 H          1.2239228517        2.6250518666        1.5043467345
 O         -0.8309579023        1.3208862845        4.4616375674
 H         -0.9900429313        1.9900107161        3.7563692706
 H         -0.5037318113        1.8003281318        5.2227902901
 O         -7.3642574668       -0.8456249521       -1.4079582910
 H         -7.1331771895       -0.4888114809       -0.5233626760
 H         -8.2614556160       -1.1754019860       -1.3581749043
 O         -4.2081637388        3.0726064638       -3.6699872107
 H         -3.4939402157        2.4785608384       -3.9760733402
 H         -4.9949234941        2.5242570528       -3.5686048065
 O          0.3407238159        5.5258315285        0.0746582721
 H          0.0240532403        6.4246315007       -0.0092034766
 H         -0.4530046076        4.9306636290        0.0587816154
 O          1.3446540529       -0.7194612376       -1.9167553112
 H          0.5400690332       -1.2506440608       -1.7624507775
 H          1.7964877236       -1.1664106084       -2.6561862702
 O          2.4073094380        1.7290959368       -1.2672101547
 H          1.9749560096        0.9782289828       -1.7019297626
 H          3.2493540816        1.3852067808       -0.9114357394
 O          6.1913563392        0.0004198220        3.9225893135
 H          6.2350023905       -0.7781098775        3.2887865116
 H          6.8894332671       -0.1366950493        4.5629809193
 O          6.3086444987       -1.8163413355       -2.4855884354
 H          5.6386593859       -2.4743480381       -2.1762811883
 H          7.0133399543       -2.3047771703       -2.9102473563
 O          3.0481823221       -1.6110847656       -0.1524808651
 H          3.5350003948       -0.8337658511        0.1772018750
 H          2.4338724228       -1.2335886157       -0.8241900101
 O          3.9158756606        3.0570161319        1.8532253838
 H          4.0948956224        3.5995323497        1.0621119821
 H          3.1263457659        3.4259901827        2.2626790334
 O          2.1096206276        4.3511775875       -1.7292518297
 H          1.9888072111        3.3859013301       -1.6101985011
 H          1.4356210120        4.7763626232       -1.1744797666
 O         -1.5796212052        3.7319526306        0.0812900078
 H         -1.0704697838        3.2188540494       -0.6097849278
 H         -2.4626851506        3.8650738029       -0.3007843929
 O          4.2360753670        0.7072865488        0.4240128666
 H          5.1497387247        0.3887191213        0.3047334200
 H          4.2330271431        1.4296883127        1.0696410344
 O          6.5008767067        2.2978598012        2.4526755065
 H          6.4149273475        1.4928587766        2.9955267442
 H          5.6066031690        2.6663696912        2.3828394599
 O         -4.1272043089        1.4645587862        0.2042593089
 H         -5.0080106417        1.0635393519        0.1409591678
 H         -4.1108820444        2.2623329967       -0.3636622479
 O         -2.5528251250       -5.3070176955       -1.0331749138
 H         -3.3482930493       -5.0457436218       -0.5479733341
 H         -2.5493175404       -4.7762661325       -1.8403986619
 O          2.2968990899       -0.3495689598        2.3586060005
 H          2.0838061894        0.4777691664        1.8870015917
 H          2.8041172985       -0.1061492181        3.1645579099
 O         -2.5774565244       -1.3301124829       -4.8193313649
 H         -3.0564274896       -0.6697545651       -4.2937781623
 H         -1.6648746868       -1.0173857384       -4.8784217760
