  116
       -193.00218793
 H         -1.4924439810        2.2034439501       -1.4124759880
 C         -0.8888374602        1.3574227077       -1.0761329243
 H         -0.6253014897        0.7408403073       -1.9381013486
 C         -1.6799015474        0.5313007910       -0.0607015994
 H         -2.6333344677        0.2542773079       -0.5095105503
 H         -1.8739287793        1.1427096712        0.8235880794
 N         -0.9995900522       -0.6853380519        0.3647715335
 H         -0.7955379786       -1.2596931210       -0.4484193351
 H         -0.1100251859       -0.4498482870        0.7979139181
 O          0.3377552346        1.8248816078       -0.5341120756
 H          0.1426641746        2.3167338825        0.2998844688
 O         -0.2014971971        1.0878657741        3.6064419882
 H          0.2989494037        0.7090032036        2.8389300573
 H          0.1337106240        0.5409825943        4.3525851672
 O          5.1046699938       -0.3820149259        2.4484737793
 H          5.2713412988       -0.6891536321        1.5133406971
 H          5.9413804695       -0.4479784794        2.9076203042
 O         -1.3272605633        1.5343800632       -4.5984488947
 H         -1.6286638274        1.6740853105       -5.4972691484
 H         -2.1291238723        1.2172693984       -4.0955367809
 O         -0.1851837713        3.1793768433        1.7381495709
 H          0.6393181458        3.6914519226        1.8740192142
 H         -0.2553234201        2.5989323173        2.5103791119
 O         -3.1267034599       -1.7789888483       -1.9002877573
 H         -3.3371925986       -2.6737765446       -1.5761555474
 H         -2.1733478178       -1.8091830429       -2.0563077474
 O          2.0848633840        2.9319207496       -2.3842949364
 H          1.4740385861        2.5043028471       -1.7568834637
 H          1.4860057992        3.4148974904       -2.9825169073
 O         -3.9948484528        2.5343102995       -1.4155024400
 H         -4.6842158077        2.1598355855       -0.8488836142
 H         -3.4648443618        3.0934469283       -0.8210379919
 O         -4.1677235550        2.5629027935        2.6663074944
 H         -4.4829098873        3.0765167630        3.4106314448
 H         -3.6327244481        1.8224263137        3.0335240335
 O         -3.4443507834        0.6803688663       -3.3385492649
 H         -3.6803228630        1.3445776039       -2.6641214837
 H         -3.4117902035       -0.1816678832       -2.9008052232
 O         -2.6598335603        3.8351127613        0.6205997051
 H         -3.2211985742        3.4954018699        1.3310668084
 H         -1.7509474091        3.7353565919        0.9422934475
 O          5.6280095948        0.7204263677       -2.0292972231
 H          6.5035487016        0.7544263603       -2.4133899698
 H          4.9870425075        0.9047504264       -2.7762361925
 O          2.8310272013       -1.6611247232        3.3369998043
 H          3.6948340448       -1.3044613764        3.0596891179
 H          2.7035347218       -2.5063345646        2.8944343569
 O          3.8588906337        1.3594359192       -3.8339176429
 H          3.3743252249        0.5224226539       -3.9339964944
 H          3.2239205027        1.9745764966       -3.4212772851
 O         -0.0371774867       -0.8896133518       -4.5475787555
 H          0.9067905208       -0.7710432661       -4.3477445237
 H         -0.4285358918       -0.0002358606       -4.5943838390
 O          2.4239020288        0.1778429162       -0.8666327241
 H          3.1027574038        0.8623968432       -0.7484594987
 H          1.5810581454        0.6112339886       -0.6350642868
 O          1.0465087094       -3.3561132678        1.6989150952
 H          0.5005228172       -3.1138900241        2.4668336736
 H          0.4151431011       -3.6879578163        1.0317297690
 O         -2.7278635197        0.5899618996        3.7416906025
 H         -1.7492796424        0.8032801019        3.6453823890
 H         -2.8571381025        0.3706115889        4.6652310671
 O         -5.6379755818        1.5322602422        0.6001257836
 H         -6.5480238460        1.7992967980        0.7320196328
 H         -5.1193522230        1.8801844759        1.3494742783
 O          2.8980552474       -2.2463625323        0.1403523481
 H          2.2305769907       -2.6161154943        0.7557224815
 H          2.6014741819       -1.3388818481       -0.0773607856
 O         -5.3828530125       -1.1277725279       -0.2659238014
 H         -4.6615347391       -1.1978635676       -0.9059441214
 H         -5.4308335475       -0.2022861470        0.0099844559
 O         -2.4566029996       -1.7170371924        2.2716805423
 H         -1.9179002973       -1.4006238287        1.4729365734
 H         -2.7163208980       -0.9051794446        2.7361607931
 O         -0.3041544397       -2.0759603300       -2.1987268721
 H          0.5690690361       -2.5124936847       -2.1950182671
 H         -0.3497891961       -1.6785580292       -3.1002855745
 O          1.4241606215        0.0770337145        1.8146149566
 H          1.8116699254       -0.6407651237        2.3532448833
 H          2.1118376637        0.7741385802        1.8004816630
 O          0.7457293252       -0.8827667047        5.1173561335
 H          0.1926383692       -1.6038097315        4.7699926920
 H          1.6198937646       -1.0565122526        4.7433991130
 O         -4.6152138056       -3.1125812008        1.3941418158
 H         -5.0690429885       -2.4173403625        0.8761875937
 H         -3.8497096978       -2.6602301379        1.7974757399
 O         -0.7199837142       -4.0975381165       -0.2534507053
 H         -1.6721876010       -4.2767566313       -0.2273501819
 H         -0.6223963391       -3.4430848489       -0.9582555894
 O         -0.1206352421        3.8184632405       -3.6851828782
 H         -0.5104729239        2.9892765576       -4.0250427348
 H         -0.8016802928        4.2342451470       -3.1538144373
 O          2.1095275989       -3.3845993413       -2.1089810673
 H          2.4814124739       -3.0315100764       -1.2620458798
 H          1.8863460776       -4.3012490384       -1.9444267782
 O          5.4499981223       -1.2301659992        0.0027068581
 H          4.6226560329       -1.7345251166       -0.0747139309
 H          5.4570562120       -0.5873333549       -0.7248003770
 O          4.0987325729        2.4127375651       -0.6039985580
 H          3.5289359481        2.8272189812       -1.2727164447
 H          4.8171891027        1.9585221627       -1.0796462381
 O          3.5006461282        1.7783199747        1.9407180493
 H          3.7944826668        2.0197038019        1.0432035995
 H          4.1325204461        1.1120579416        2.2618226226
 O          2.4437319544       -0.8907641804       -3.3626094835
 H          2.5368280308       -1.8430896363       -3.2433591465
 H          2.3730106854       -0.5252999223       -2.4559013568
 O         -3.4616728535       -4.2252712965       -0.6568402838
 H         -3.9116245773       -3.8653417678        0.1622528152
 H         -4.0216616231       -4.9284799493       -0.9836983631
 O          2.2668108032        4.2175294443        2.0464004300
 H          2.6610674969        4.5782325383        1.2502235874
 H          2.7335484823        3.3824490687        2.2238892811
 O         -0.6731089149       -2.8429019281        3.7904131043
 H         -1.3772352064       -2.4314398450        3.2133482571
 H         -1.0341364787       -3.6700230947        4.1087003655
