  534
       -906.57934772
 O         -2.1460812341        3.0625671843        3.5257452304
 H         -3.1017235901        3.0079331749        3.7550162614
 H         -2.1169197194        3.4958485532        2.6414966728
 O         -5.4342146162        4.1748797867        6.2219520488
 H         -5.6738162048        3.4374800535        6.8106801606
 H         -6.2649565736        4.5243573057        5.8759684752
 O         -2.7051884191        5.2118634099       -1.4907617190
 H         -3.2444063602        4.4687787538       -1.8198609213
 H         -3.3168356832        5.7448103576       -0.9604333321
 O         -1.8343266899        6.5968207131       -3.5360043135
 H         -2.1130796922        6.0499123681       -2.7534766539
 H         -1.3971971405        7.3522278710       -3.1389960942
 O          3.1314528835        3.3111474031       -1.1403542386
 H          2.3457642535        3.2925259173       -1.7227346988
 H          3.8873028450        3.5639163670       -1.6995087032
 O          2.2391968334        5.6119323194       -3.6049343869
 H          3.1849803647        5.5037720832       -3.7291396632
 H          2.1214561901        6.1542546091       -2.7903731937
 O          0.2213223908       -0.1851926320        7.9907132707
 H         -0.2167014973        0.6569317735        7.7736867744
 H         -0.5027391395       -0.8260635770        8.0228193544
 O         -1.4765713625        0.7432123775        2.4715872129
 H         -1.7075020579        1.4247241188        3.1280717658
 H         -2.2424472647        0.7493695588        1.8630324101
 O          1.5524722169       -2.1780601294        6.5665561342
 H          2.4784449718       -1.8975988266        6.5478941535
 H          1.0867748235       -1.5251782365        7.1162886193
 O         -1.8694074924       -1.9419628053        2.6120234402
 H         -1.5808794013       -1.0116558615        2.6058814618
 H         -2.8247015511       -1.9263314504        2.3616799452
 O         -1.4819037253       -3.7734531678        0.6142234628
 H         -0.5819044721       -4.0276480633        0.3265448346
 H         -1.3527256156       -3.1907333181        1.3876111603
 O          1.6731428499        3.6023678965       -6.5631751214
 H          2.5718161619        3.6872803710       -6.2183507495
 H          1.1721589819        4.3618785595       -6.2429291943
 O          1.0038650253        3.3478847651       -2.8822430023
 H          1.3671859578        2.6119506552       -3.4289719887
 H          1.3339588495        4.1722602630       -3.2862254589
 O          0.8021867240       -3.1584744288        2.0962433252
 H          1.7423855097       -3.3063697929        1.9476053586
 H          0.7288220918       -2.4711340209        2.7893329913
 O          3.6048174401       -2.8350890084        3.9627238303
 H          3.4010140695       -2.3822318777        3.1228180408
 H          3.5951158428       -2.1273240276        4.6371882530
 O          4.4295170004        3.3968561951        1.5586523516
 H          3.7890009280        3.6427392925        2.2559094944
 H          4.7363537921        4.1865022742        1.0789191853
 O          5.5674786036        0.5697945767        0.3986574954
 H          6.0193568210        0.4022744308        1.2379171517
 H          4.6234279534        0.7519212964        0.6157271272
 O         -0.7838551746       -1.9809787388       -4.0485278414
 H         -0.9229628366       -2.6834175820       -3.3893687038
 H         -0.0060604528       -2.2208021461       -4.5811132495
 O         -2.6039581784       -1.1906232897       -0.3037095769
 H         -2.4451351607       -2.0471332459        0.1041042377
 H         -3.1777317483       -0.6797720395        0.2834402700
 O          0.9240457675       -4.7398392047       -0.3159111639
 H          1.6335317386       -4.5123627957        0.2942595555
 H          1.1783067074       -4.3770342260       -1.1925920062
 O          1.7898806410       -3.7359101439       -2.6699471600
 H          1.4750427589       -4.3552606122       -3.3622884974
 H          1.6690593152       -2.8311934334       -3.0231417604
 O         -5.9721014883        0.6790673060        2.9896539339
 H         -6.4333908107        1.3212151319        2.4133361540
 H         -6.3538727039       -0.1978059166        2.7995260301
 O         -1.8663549057       -6.5175838373        0.3279599975
 H         -1.4273876935       -6.6976226951       -0.5310754325
 H         -1.7372468751       -5.5662571760        0.4738729078
 O         -4.7165489845       -2.4732979753       -5.0053799077
 H         -4.4802150052       -2.0983991927       -4.1343595530
 H         -3.9954916771       -2.1696322961       -5.5895721704
 O          4.0317761106       -6.6994781462        0.4675864599
 H          4.1188962503       -6.4378652277       -0.4819721078
 H          3.1811747841       -7.1865254081        0.4910933216
 O          2.4612547018        1.6301342761       -4.2564133045
 H          3.0776536158        2.2812654801       -4.6462682331
 H          2.9113498120        1.2064063741       -3.5018159432
 O         -7.3653548402        2.1146623493       -4.7457283340
 H         -7.3458047066        1.2386311526       -5.1587000164
 H         -7.9589951023        2.0233069370       -3.9862654844
 O         -4.6445646948        3.5285226993       -2.2394574379
 H         -4.4930610736        3.1163629431       -3.1123808164
 H         -5.2823794447        4.2635801993       -2.3527420908
 O          3.4713863807        0.6735132903       -1.9291320296
 H          4.2923269270        0.1581759377       -1.8636689631
 H          3.5484351770        1.4633868733       -1.3739299550
 O          4.1701306887        3.4076298230       -5.3180277558
 H          4.6337832993        2.7011682474       -5.8132097864
 H          4.6602364969        3.5471056310       -4.4857542765
 O          2.4391756937        0.1012470688       -6.5437830835
 H          1.5778720222        0.0478798801       -6.9697363993
 H          2.3005634693        0.5674308382       -5.6950660314
 O         -8.4724717262       -0.4657584055       -1.4778313164
 H         -8.6458880030       -0.2192859567       -0.5642997356
 H         -8.8190872365        0.2531474633       -2.0623078925
 O          4.6773451612       -0.3868628126       -4.2136725734
 H          4.7775864836       -1.3110868837       -3.9351465684
 H          5.2711606509        0.1316909683       -3.6417971934
 O         -6.8311204486        1.8632156423       -1.9050533285
 H         -6.6266787728        1.1718200974       -1.2462629229
 H         -5.9740672440        2.2673945161       -2.1049266188
 O          4.9362979100        0.1137555994        3.1346456661
 H          5.4564391541        0.9417834433        3.2407348366
 H          4.0748805584        0.2913659301        3.5502621753
 O         -0.5929430528        6.9859087264       -0.9509976938
 H         -1.0264856037        7.2204331440       -0.1207504732
 H         -0.6803282264        6.0122181943       -0.9852004630
 O          2.3128351265        0.5616195554        3.4122274636
 H          1.8198703487        1.2616742589        3.8647150485
 H          1.7958747895       -0.2528845169        3.5959530923
 O         -6.2582301814        0.1541454120        0.0629708132
 H         -6.4258551447       -0.7865484583       -0.1061702837
 H         -5.3068123208        0.2318694554        0.2353084450
 O          0.5524494578        1.9152629159        4.9574995452
 H         -0.1673533697        1.2622975368        5.0667763650
 H          0.1797812891        2.7824316442        5.1811074514
 O          0.4047864380        2.6638437179        1.8604748889
 H         -0.1757591803        1.9646384818        2.2073439447
 H          0.5085601700        2.4231007491        0.9205523857
 O          8.2678065969        1.4827601260       -4.5456191167
 H          8.9614821701        0.8848229341       -4.2201454507
 H          7.9813701429        1.0698454683       -5.3947767322
 O          7.9709736692       -2.3946141843       -0.1203675343
 H          8.5234152139       -2.9572396894        0.4565790679
 H          7.0649015236       -2.4918845104        0.2482819358
 O          1.9922416142       -1.3188394157       -3.7835592253
 H          1.3443695267       -0.6091863129       -3.5890418985
 H          2.8554454269       -0.8971421965       -3.8375612579
 O         -3.0964085287       -4.5429730331       -4.2415132931
 H         -2.3769515219       -4.5765985743       -4.9073194042
 H         -3.7378830779       -3.8768971495       -4.5498013588
 O         -0.2636153000       -7.6164084398        2.1853096941
 H         -0.9415189167       -7.3189887511        1.5429679270
 H         -0.0089218648       -6.8237139523        2.6850706498
 O         -1.4751399653       -3.3034967811        4.8250306512
 H         -1.6364102956       -2.7277916782        4.0375092698
 H         -0.9020505689       -4.0172218892        4.4980612033
 O          0.2334525197        5.2579949619        2.7216803446
 H          0.8820135842        5.5703467924        2.0837377739
 H          0.0328051990        4.3472688647        2.4257200117
 O         -2.1719067108        2.1298479182       -0.7368471729
 H         -2.0551758526        2.5032173875       -1.6275956735
 H         -1.3169290799        1.7514365168       -0.5057452841
 O         -3.1952319936        5.7999553234        5.4847645322
 H         -3.8998586370        5.2750177883        5.8837937033
 H         -2.3650664566        5.3149931962        5.6044571856
 O         -3.8704356068        0.7614986704        1.2776049338
 H         -4.0260443596        1.6671466228        0.9479649103
 H         -4.4809204614        0.6227351438        2.0284165203
 O         -2.2564707221        4.1709458442        1.1500243254
 H         -1.6999257252        3.8781966517        0.4044068421
 H         -2.1632043709        5.1464508662        1.1751558712
 O          3.4335420910       -1.6136941299        1.5656326765
 H          2.8786877982       -1.4102323686        0.7805945736
 H          3.8128637571       -0.7834990617        1.8862238281
 O          7.4581273390        0.0800192196       -6.6635155389
 H          6.5911311040        0.4961667323       -6.8101819509
 H          7.2749444878       -0.8667163381       -6.5540179393
 O          8.9820328534       -4.3750084695        1.3908662321
 H          9.0047539056       -4.0924554716        2.3158665072
 H          8.1792796851       -4.9109945395        1.2735177230
 O         -4.3129293491       -3.5631786762       -0.7118750402
 H         -4.0884894511       -3.1830743471       -1.5697460580
 H         -4.3123223675       -4.5433955977       -0.8020187205
 O         -1.8858622092        3.6797857785       -6.5169462742
 H         -2.5495158903        4.0309581845       -5.8819975633
 H         -1.1866302675        4.3425505572       -6.5323258799
 O          0.1149566580        0.4842980679       -3.2797518391
 H          0.0965705857        1.0520113509       -4.0687104798
 H         -0.5897158582       -0.1659708631       -3.4385510144
 O         -3.2386107191       -7.0211085929       -3.1407614008
 H         -3.2916850807       -6.2091217226       -3.6729271899
 H         -2.3098601143       -7.0785365829       -2.8598392807
 O         -5.5101865136       -3.3583255534        3.7843892282
 H         -5.9766990592       -4.0222142646        3.2645843637
 H         -4.8687662850       -3.8338158543        4.3577082247
 O         -8.4029908121        3.7967434694       -1.1572493486
 H         -7.8203512376        3.0539749736       -1.4621261693
 H         -9.2059250519        3.3505113340       -0.8419926587
 O          7.7251337885        0.3164217284        2.0763629692
 H          7.7515546818        0.6151110843        3.0035628197
 H          8.4749620501       -0.3041212005        1.9811417624
 O         -2.4427067135        0.3223933699       -4.1986658535
 H         -2.7139311659        0.4623229263       -5.1137330817
 H         -2.2189745859        1.1991605203       -3.8465677679
 O          7.2575108259       -1.6520468226       -3.5573415432
 H          8.0390962811       -1.0840865885       -3.5084264650
 H          6.6696480052       -1.4497414085       -2.8000561636
 O          1.9591494189       -4.6017309289        5.2267261203
 H          1.6327872284       -4.0224534871        5.9261315011
 H          2.5991443558       -4.0549395771        4.7355065027
 O         -1.7466271446       -1.8623412321        7.0851317442
 H         -1.4683382941       -2.5144876210        6.4178932552
 H         -2.7084781860       -1.9930093145        7.1723617367
 O         -4.2342200792        0.7277536153       -1.8316438651
 H         -4.1183903325        1.0022791021       -2.7510851804
 H         -3.4603352660        1.0621005508       -1.3474906440
 O          0.8069377912       -2.6019988433       -6.1595161923
 H          0.5201210810       -1.7874173572       -6.6103367973
 H          1.7745224434       -2.6265513031       -6.2018864842
 O          1.9260042102       -7.3103014425       -2.5324663003
 H          1.8324406450       -7.7213693591       -1.6612146454
 H          2.7202664689       -6.7515686845       -2.4606168665
 O          8.8229890532       -2.8756739736        3.7459051755
 H          7.8707000317       -2.6682148621        3.6989279293
 H          9.0922125568       -2.4257050151        4.5671172375
 O         11.5107964569       -2.1017103357       -0.0013065779
 H         11.1887683145       -2.9698087491       -0.3819330627
 H         12.4350923340       -2.2274463002        0.2101742615
 O         -1.3920169394       -3.9493945645       -2.2886058730
 H         -2.1435963445       -4.1245183564       -2.8979115663
 H         -1.7557557518       -3.6589719483       -1.4463651757
 O         -6.6817377053       -2.4966285865       -0.1363791536
 H         -7.4669284512       -3.0578518316       -0.2291762504
 H         -5.8870065770       -3.0046795755       -0.4008716781
 O          5.8467844952       -4.9230316770       -4.7940313292
 H          6.2921007238       -4.2361159000       -5.3266945651
 H          6.4865568622       -5.3346400725       -4.2080850666
 O          8.4681843038       -3.6925948379       -2.3837969303
 H          8.1042692767       -3.0923912771       -3.0630587080
 H          8.2446239564       -3.2310500642       -1.5441353363
 O          3.0830031260        1.2168124631        0.9296114645
 H          2.7121157232        1.0033981451        1.8093940041
 H          3.4204178598        2.1257505780        1.0043346697
 O          5.7726318316       -2.8205125857        1.2305978455
 H          6.0847913304       -2.6098077391        2.1362487492
 H          4.8775608508       -2.4216252040        1.1899528078
 O         10.9813134021        2.4136947563        0.3927531998
 H         10.9965144986        1.6190321555       -0.1777315887
 H         10.9494383740        3.1623497095       -0.2307352424
 O         -3.8923371353        0.2984500135        4.6318249300
 H         -4.2179396544        1.1407408560        4.2689048032
 H         -4.6731360168       -0.2846962904        4.6528520195
 O         -4.6110785816        3.2581286990        0.4563599452
 H         -4.5649953805        3.1578885394       -0.5102364734
 H         -3.7192473837        3.5915878747        0.7207022670
 O          2.4895706893        3.4829038288        3.3665195491
 H          1.7291504337        3.1213625952        2.8584758121
 H          2.2936997842        4.4066285217        3.5467850567
 O         -1.2661623622       -0.0731527366        5.1440653067
 H         -2.1483155322        0.0231572374        4.7532041444
 H         -1.3906114046       -0.6044967566        5.9558605787
 O         -9.5998404475        1.1452621876        3.6900755287
 H         -9.7294179458        2.0447055300        3.3385273963
 H         -8.8279535735        1.2262751691        4.2814507669
 O         -7.7278420005        5.4247131090        0.8149774030
 H         -8.5285302404        5.4757187722        1.3401269272
 H         -7.9282461917        4.7853202001        0.0914198577
 O         -3.4635029210        4.6493305492       -4.6371036309
 H         -3.1872663041        5.5504534299       -4.4352026949
 H         -4.4362247205        4.6567096883       -4.7868028775
 O        -11.6792600065        0.4072659050       -1.4747812343
 H        -11.3860757959       -0.3637776393       -0.9327510242
 H        -12.6093810596        0.2701232993       -1.6479406596
 O         -3.3712773189       -1.8074873856       -2.7774254187
 H         -3.1621846330       -1.4845132188       -1.8786307520
 H         -2.9565374218       -1.1308320269       -3.3389263251
 O         10.8153700534        1.2004602542        2.9701614224
 H         10.6338887301        0.3017146971        2.6405224550
 H         11.0532381416        1.7247470517        2.1949794172
 O         -4.0289734249        6.6017709501        3.0069292901
 H         -4.7200026670        5.9218609587        2.8824221505
 H         -3.7099870152        6.4613242583        3.9159256023
 O         -8.7424161903       -3.7108478442        2.5979343303
 H         -8.0056752447       -4.3303128201        2.4572703466
 H         -9.2083314835       -3.7035276046        1.7526386197
 O         -6.1159040604        4.6777820940       -4.8456899008
 H         -6.4106775007        5.1156436481       -4.0362058468
 H         -6.6236594430        3.8567357083       -4.9196429907
 O          6.1707920294        2.4337731086        3.2860717979
 H          5.7957757433        2.8052498426        4.0905212892
 H          5.6572508121        2.8292746757        2.5503385099
 O         -6.9088050536       -5.4514058232       -0.9654013224
 H         -6.7755376733       -4.8425784158       -1.7125602165
 H         -6.0958604584       -5.9815453630       -0.9424395587
 O         -9.1053519509       -3.8746777440       -0.2798365353
 H         -9.2479231020       -3.5671151424       -1.2065911729
 H         -8.6905258682       -4.7408858488       -0.3729575007
 O         -8.8226770637       -1.5030374245        4.7908372606
 H         -9.3470305326       -0.7873714204        4.4175986560
 H         -9.0186304960       -2.2973288047        4.2843065763
 O          4.2533251022        2.5526536120        5.3144384575
 H          3.6313897450        2.8275749655        4.6201951879
 H          3.6920568471        2.2108149144        6.0227473408
 O          2.3613430825        1.1226185537        6.7157182946
 H          1.8622786951        0.7463945760        7.4486474733
 H          1.6773189685        1.4368876435        6.0764654050
 O          6.2093514151        0.5450196342        5.7276517597
 H          7.0145770502        0.8449198249        5.2876921291
 H          5.6011032447        1.2979536528        5.6804871459
 O          3.3350220527       -5.1381847458       -6.0531982191
 H          4.1811859992       -5.3212626632       -5.6243604052
 H          3.3983189977       -4.2297510338       -6.3751938015
 O         -1.2462976033        2.0292361431        7.2937758708
 H         -2.1490534089        1.6755805946        7.2962778256
 H         -1.2627480069        2.8877079003        6.8636014557
 O         -9.0524288636       -2.7686714099       -2.6899800695
 H         -8.1763533888       -3.1330975463       -2.9202761957
 H         -8.8714423346       -1.9151060564       -2.2374610225
 O         -7.7576804801        4.2107727174        4.5945985839
 H         -8.5378136848        4.2407396110        4.0306637865
 H         -7.6104593841        3.2510954565        4.7714276069
 O         -0.9930221021       -4.5970973062       -5.9145338463
 H         -0.4313740256       -5.2311365509       -5.4429549427
 H         -0.3624107814       -3.8774385075       -6.1059006581
 O          4.9479297171        1.0881847157       -6.4252592213
 H          4.8733806222        0.5239626984       -5.6236704711
 H          4.1419680500        0.8833842448       -6.9192612651
 O          3.5075771246        6.0311783822        2.8233355455
 H          3.3742250737        6.9450940011        3.0694791333
 H          4.4814518140        5.8794291190        2.8714467715
 O          6.2269667415       -2.1157131378        3.7357743601
 H          5.8898463157       -1.1965122651        3.6119079583
 H          5.4635829017       -2.6075688890        4.0759257473
 O          0.0258668863       -5.2015059094        3.5440289824
 H          0.2602286767       -4.5065691913        2.8767226957
 H          0.7597656779       -5.1663904704        4.1984459993
 O          0.7694477870       -1.4410807954        4.1156199828
 H         -0.0503667054       -0.9488944472        4.3291095889
 H          1.0608800996       -1.8208998010        4.9715733424
 O         -6.0969770211       -1.0235158375       -2.6255801327
 H         -6.8938178593       -0.7481055617       -2.1353025785
 H         -5.3443403389       -0.5052075758       -2.2787787735
 O          3.5917650132       -2.3331321873       -6.1713126399
 H          3.2851135768       -1.4127782625       -6.2960070812
 H          3.6745405968       -2.4701993282       -5.2033957539
 O          1.1635214540       -5.5576007660       -4.5287748975
 H          1.3595536525       -6.3673475712       -4.0404003981
 H          1.9076651811       -5.4358610462       -5.1561018600
 O          8.5446729736        2.7680852412        1.3544315204
 H          9.4663803529        2.6654310236        1.0222714671
 H          8.2553292267        1.8895491688        1.6841376524
 O          5.4902978172       -1.2370552097       -1.5561318856
 H          5.0180320672       -2.0630611177       -1.3487296141
 H          5.6228834772       -0.7430544119       -0.7269114920
 O          3.2170693113       -4.4729456130        1.5226655808
 H          3.5182123877       -5.3665720980        1.2013400579
 H          3.5846369516       -4.3593557059        2.4017634338
 O          6.3593559652        1.1560413863       -2.7814040480
 H          7.0327534627        1.2748975697       -3.4944863733
 H          6.8520598725        0.8168459841       -2.0137531208
 O         -6.1061923421       -1.1978655043        5.1817914015
 H         -7.0747903977       -1.1256400320        5.2036894606
 H         -5.9492449473       -1.9672957379        4.5975068385
 O          9.8131126530       -0.5130613870       -3.5641799842
 H         10.4347978954       -1.0522946645       -4.0507386805
 H         10.2469009558       -0.2319546153       -2.7257471262
 O          8.8245380136       -1.0720387488        5.7699761551
 H          9.0041683240       -0.1968722780        5.4050304827
 H          7.9163658287       -1.0342790438        6.0834775136
 O          8.1365597228        3.6763183397       -2.7314374334
 H          7.6890439944        3.2381534231       -1.9832250531
 H          8.2619481452        3.0090365051       -3.4215825824
 O          6.8063364206       -5.7493754811       -2.0356428318
 H          7.4469161210       -5.0380135726       -2.2382864038
 H          6.7904592027       -5.7843807002       -1.0655326817
 O          3.9118552938       -3.3434084795       -0.8563388781
 H          3.1319969175       -2.8030391648       -1.0730474151
 H          3.7680949181       -3.6638736258        0.0496329603
 O         -6.7696523566       -0.5639939215       -5.1510374306
 H         -6.5183869288       -0.6174055712       -4.1985827744
 H         -6.1820948713       -1.2046818025       -5.5685333365
 O          4.2900196335       -3.0364678700       -3.6597411441
 H          4.8184742550       -3.8081136705       -3.9272862285
 H          3.4826611716       -3.3703033098       -3.2321566643
 O          1.4964626809       -7.4046822118        0.1762984752
 H          0.9349843503       -7.6990504123        0.9211214976
 H          1.1758727798       -6.5090727083       -0.0476700904
 O         10.6352403961       -4.3890150841       -0.8577486324
 H          9.9801003390       -4.2637598469       -1.5657505186
 H         10.1317116757       -4.6508076004       -0.0720315864
 O          8.0550192009        0.1584041600       -0.7974847908
 H          8.0122973152       -0.8117981455       -0.6578013901
 H          7.7748848079        0.5315778429        0.0459713032
 O         -0.0159123980        5.4448116450       -5.2106863049
 H         -0.7378102402        5.8356349339       -4.6806032525
 H          0.7897744424        5.6880986546       -4.7362648783
 O         -4.7015001899        1.9417524819       -4.3480368135
 H         -4.3270815580        1.7768653243       -5.2180112266
 H         -5.6710494148        1.9639341152       -4.4592480342
 O         -3.6970531674        0.6705587099        7.2083894243
 H         -3.7608677916       -0.2182804990        7.5720383601
 H         -3.7181325922        0.5453851679        6.2200299510
 O         -4.8339084000        6.0393899626        0.0408540185
 H         -4.9485819253        5.1317452102        0.3724470832
 H         -4.7566177720        6.6025188062        0.8136603656
 O          6.5036711517       -5.3960580820        0.7385776739
 H          5.7823639441       -6.0281500937        0.8491703748
 H          6.1117488044       -4.5065132859        0.8455157408
 O          4.6324392239        6.6633863907       -2.1016775507
 H          3.7483876429        6.9421500375       -1.8067817157
 H          5.1272991644        7.4596203538       -2.2902708874
 O         -3.7935098559       -4.8466954955        2.0073162245
 H         -3.3501936130       -5.4542374318        2.6192374473
 H         -3.1177692157       -4.4710033272        1.4333869770
 O         -6.4653299645        5.4912372950       -2.1882386856
 H         -6.0820567188        5.9293131027       -1.4123230794
 H         -7.2799410859        5.0610959529       -1.8871385974
 O         -8.9971811297        0.0841352063        1.3207651106
 H         -9.3029575161        0.4545756221        2.1783265860
 H         -8.2541828541       -0.5135064365        1.5904460631
 O        -10.2789137376        2.2131257570        0.0553621906
 H         -9.7401537573        1.5075402610        0.4479330858
 H        -10.9103909610        1.7506047394       -0.5168241974
 O          2.2551759938        5.1385254981        0.5937528699
 H          2.7244421646        4.4293668955        0.0986926557
 H          2.8295220443        5.4368174678        1.3226651100
 O          4.1222708976       -5.7448681505       -2.0178434996
 H          3.9847968731       -4.8147746188       -1.7389837556
 H          5.0705719562       -5.8187909663       -2.2323652313
 O         -0.7888055957        4.3199166718        5.3080616954
 H         -0.2703429480        4.9474352541        4.7953520278
 H         -1.3398585684        3.8500766637        4.6210748166
 O         -4.3021021404       -6.2117655334       -0.8788229286
 H         -4.0023993957       -6.5714238297       -1.7513908552
 H         -3.6005967749       -6.4634834367       -0.2536216895
 O         -0.7372459146       -6.5544673292       -2.0937816896
 H         -0.7855296828       -5.5837345333       -2.2138045931
 H          0.1692789280       -6.8221568429       -2.3051077609
 O         -7.2011027022       -1.5655665049        2.2669718660
 H         -6.7710209160       -1.9282995276        1.4647690856
 H         -7.7478072068       -2.2963290087        2.6111085046
 O         -2.3493762167       -1.9586140337       -6.1721557720
 H         -2.1102108511       -2.8211142898       -6.5231007107
 H         -1.8646073155       -1.8934475603       -5.3038582653
 O         -2.4404982878       -6.4158178014        3.8158536333
 H         -2.2759020705       -7.3107085337        3.5093315714
 H         -1.5725776982       -5.9743374706        3.7960715568
 O        -10.8729005070       -1.5135324218        0.2089672776
 H        -10.2252166953       -0.9814024643        0.7138931303
 H        -10.4317599598       -2.3395590977       -0.0100493558
 O         -6.4766177957       -5.0190657788        1.7333366631
 H         -5.5022679379       -5.0708272769        1.7454879530
 H         -6.7122903269       -5.1773307951        0.8042739720
 O         -9.3502260099        3.5129461864        2.3253439473
 H         -9.9668410085        3.3225199807        1.6063204389
 H         -8.4884153799        3.1909817502        1.9862969225
 O         -4.3571567032       -2.0239713787        1.7495360044
 H         -4.7963531395       -2.4886780484        2.4871115929
 H         -4.3731042751       -2.6315430919        0.9984978320
 O          5.2259133789        3.5735891538       -2.8551735343
 H          5.5884332310        2.6617905468       -2.7490726050
 H          5.9875634937        4.1578673749       -2.7958255318
 O          6.1323440628        5.7267789319        2.7176521697
 H          6.2106707377        5.6356092211        1.7563670932
 H          6.8018125433        5.1432146769        3.1150824949
 O          9.9079144215       -1.1853968721        1.9910289549
 H          9.6304984070       -1.8841451842        2.6227008543
 H         10.4570559830       -1.5989085459        1.3034794612
 O         -5.9654671136        4.7413846017        2.6606824985
 H         -6.5853506606        4.6871562322        3.4152398421
 H         -6.5330040113        5.0015195808        1.9016982343
 O          8.5701211477        1.4591095535        4.4066182669
 H          9.4572329561        1.4256516642        3.9857184844
 H          8.2778580482        2.3796461495        4.3043298827
 O         -4.4353938271       -2.2025697302        7.0539808767
 H         -5.0932500019       -1.7849685806        6.4595480191
 H         -4.3733660863       -3.1146639056        6.7439161963
 O         -6.4686384250       -3.6011156922       -2.9857789985
 H         -6.2092308571       -2.6769903842       -2.7526628566
 H         -6.0808878212       -3.7604446611       -3.8487914069
 O         -9.4403340148       -0.9739704109       -4.8122825320
 H         -8.5037649448       -0.8988238434       -5.0771163538
 H         -9.4841565516       -1.7226646075       -4.1959983482
 O         -0.1417759170        4.2798949170       -0.5687603914
 H          0.6525696084        4.5092187088       -0.0733592505
 H          0.1407387714        3.8176504760       -1.3682990267
 O         -1.7792288208        2.8815271949       -3.3078099269
 H         -0.8486597961        3.1460082613       -3.3419251835
 H         -2.3134837633        3.5542515744       -3.7558132082
 O         -0.0989279043        1.8773215376       -5.5920651049
 H          0.6751532263        2.3647166775       -5.9438386081
 H         -0.8568668060        2.4522722058       -5.8043633299
 O          3.8609375610       -0.8991556628        5.8009941884
 H          4.7790172430       -0.5899232616        5.8124506875
 H          3.3241533056       -0.1166660142        6.0536173184
 O         -4.6768890285        2.8442627916        4.0238706620
 H         -5.1076208027        3.3625190863        3.3199718533
 H         -4.9022022841        3.3036378833        4.8584278469
 O          2.0251481524        6.9751989004       -1.3181856215
 H          2.1488331367        6.3269801744       -0.5899910978
 H          1.0656220222        7.1853464243       -1.2590693139
 O         -6.0351284965        1.8326011294        7.4939376188
 H         -6.3972293750        1.6105289164        8.3503586066
 H         -5.1445018377        1.3998695651        7.4320126264
 O         10.4917499224        4.2503587534       -1.5434700489
 H          9.6209797435        4.0924914304       -1.9707197908
 H         11.0735313186        4.5765926654       -2.2285081953
 O         -1.7885981385        6.7623441669        1.5782225582
 H         -1.0988183377        6.4380314389        2.1803417242
 H         -2.6059684769        6.8552300100        2.1118932472
 O         -7.3215175395        1.6246413630        5.0590953282
 H         -6.6958948741        1.2386751630        4.3994737356
 H         -6.9179672239        1.5262345075        5.9330151672
 O          6.4177412265       -2.5057380658       -5.9991890566
 H          6.5978144713       -2.1540599897       -5.1080459619
 H          5.4687357553       -2.3758667460       -6.1717553935
 O          6.7272700116        2.8771602845       -0.5312745455
 H          6.1768032251        2.1158798298       -0.2635100100
 H          7.4261498092        2.9431393107        0.1544733684
 O         10.6663198064        0.2110982459       -1.1560462550
 H         11.0008255461       -0.6030984069       -0.7387307998
 H          9.6978527482        0.2413768454       -0.9642142277
 O         -3.7583215185       -4.4954651149        5.4233510654
 H         -3.5843685895       -5.3872190366        5.1020595685
 H         -2.9227391625       -4.0054301994        5.2294687438
 O         -7.0790069167        2.4211971138        1.2914921987
 H         -6.2709814728        2.8988086626        1.0367193901
 H         -7.1446531388        1.6669390858        0.6850279429
 O          8.2841643304        4.1826246143        3.5868320893
 H          9.0826675381        4.6988782786        3.6920927316
 H          8.3596550899        3.7117023395        2.7225168300
 O         -0.3596695867       -0.3118956940       -7.1029497465
 H         -0.3369163578        0.4713431528       -6.5101600179
 H         -1.1767799986       -0.7874706556       -6.8726613321
 O         -9.5912097069        1.1417654110       -3.2136088040
 H         -9.6183267570        0.4355983762       -3.9044633651
 H        -10.4566871825        1.1173601804       -2.7876388974
 O          5.6105943230        5.2356540258        0.0311444761
 H          5.2766882243        5.7160855466       -0.7439042202
 H          6.0635336441        4.4339509777       -0.3070606729
 O         -3.1939472279        1.2597487779       -6.7118292207
 H         -2.7369791972        2.1057890344       -6.8390450475
 H         -2.9574654254        0.6971077670       -7.4497142459
 O          2.0367662722       -1.4919776977       -0.8491343277
 H          1.1886654115       -1.3121332806       -0.4021696926
 H          2.1100257125       -0.9039445850       -1.6094240557
 O          0.4894117157        1.4474469008       -0.8013372886
 H          1.4040933561        1.1761376214       -0.6778601295
 H          0.2530468793        1.1398335827       -1.6991590452
 O          0.0125158693       -0.8160903700        0.6645235961
 H          0.0837213503       -0.1134088238        1.3105222782
 H         -0.8748658691       -0.7904313632        0.2815285950
