  131
       -218.46353435
 H          3.3303931219        1.3036248133       -0.0483008882
 C          2.8032704731        0.3502656844       -0.0318374117
 H          2.6023137729        0.0322111629       -1.0527772164
 C          1.5041501338        0.5158734860        0.7410385508
 H          0.9081064012        1.2728225322        0.2358321807
 H          1.7382770391        0.8517882389        1.7543093537
 N          0.7574110153       -0.7420455366        0.7469666165
 H          1.3467523577       -1.4755707806        1.1260613302
 H         -0.0426564201       -0.6553329853        1.3599790030
 O          3.6320273978       -0.6510884721        0.5428397978
 H          3.8300391213       -0.3585265647        1.4758916128
 O          2.4735128925        3.7959682634        0.8190878650
 H          1.9747484190        3.4367161293        0.0506767960
 H          1.9128225176        4.5313252031        1.1403867954
 O         -7.1276804878       -2.0186565551       -0.2841518495
 H         -6.7693095688       -1.8788030509       -1.1753338802
 H         -7.4176751808       -1.1325093955        0.0134478296
 O          4.8407699792        3.2463944431       -0.2245154419
 H          4.0058635675        3.5168032622        0.2269538357
 H          5.3457881457        4.0494210883       -0.3572787179
 O         -5.0584521664       -2.8459433927        1.0344993579
 H         -5.2890514701       -3.6352074467        1.5237865710
 H         -5.8982591478       -2.5308157628        0.5853027183
 O          6.1625778550       -0.6782496286       -0.3012170632
 H          6.4849238607        0.0542514279        0.2725203659
 H          5.2052358684       -0.7020558042       -0.0793439152
 O          0.2209743723       -1.3101322211       -1.7942923009
 H          0.3814052291       -1.0723448733       -0.8358671408
 H          0.8515945760       -0.7900847723       -2.3223050592
 O          3.3300004749       -3.0603708020       -0.6480643022
 H          3.3226532289       -2.1575954933       -0.2731225073
 H          4.2409783628       -3.3742932894       -0.4762178182
 O         -4.9365505356        1.0768452010        0.3615386304
 H         -4.6098843700        0.8145374689       -0.5203192854
 H         -4.5248972859        0.4702130066        1.0096824987
 O          5.7445132079       -0.0821209890       -2.8341031908
 H          5.9921124716       -0.2789815060       -1.8953444170
 H          6.5542926914       -0.0907863226       -3.3435951615
 O          3.6692338760       -1.8978790697       -3.2404890295
 H          4.4737336892       -1.3634735210       -3.1396533691
 H          3.5558807020       -2.3995801170       -2.4188683223
 O          6.2608728133        1.3865993868        1.3506894976
 H          5.7772508830        2.0644257650        0.8496982151
 H          5.6649029743        1.0917957064        2.0537119656
 O         -3.0836574144        3.0733931093       -1.7002470786
 H         -2.4087986520        2.4517203779       -1.3458865957
 H         -3.4336215993        3.5421740350       -0.9371745101
 O         -0.5487978607        1.1546656638       -3.6676992891
 H         -1.1214128528        0.4116056770       -3.8896797976
 H          0.3660052294        0.8294818084       -3.7169848027
 O         -3.0874439911        1.8836173505        3.4902365924
 H         -2.1299059782        2.0057742170        3.6193393705
 H         -3.2210525730        0.9892757831        3.1584202060
 O          0.4654898649        5.3010947409        1.7404860293
 H         -0.1224979952        4.6166359560        1.3654152839
 H          0.3188655846        5.2808676744        2.6874851594
 O          2.4912885626        2.4471821185        3.2257021606
 H          1.5490854308        2.4487105775        3.4638221760
 H          2.5541083315        2.9591636969        2.3982295519
 O         -4.0598215754        0.5520648755       -2.1636395855
 H         -3.8453263746        1.4953241281       -2.2777693837
 H         -3.2720776646        0.0473808057       -2.4545991425
 O          1.7987521993       -3.7813069589        1.4339695324
 H          1.8428563133       -4.7259833126        1.5848492314
 H          2.3147004445       -3.6014310505        0.6131349254
 O         -2.0891540142       -1.0934762401       -3.0668728835
 H         -2.4813284869       -1.9662148799       -3.1223705299
 H         -1.2620979789       -1.2027412057       -2.5357638112
 O          0.1042260756       -0.5464663591        3.8519265865
 H          0.1727328324       -0.3772424279        4.7929042902
 H         -0.6591219034       -1.1823863904        3.7463051515
 O         -0.9055540104       -3.2165138051        1.1942361456
 H          0.0484521401       -3.3801277677        1.2701783810
 H         -1.2471726985       -3.9127460769        0.5802484739
 O         -0.6739440924        3.8469195944       -2.9574482545
 H         -0.6535002622        3.0335488860       -3.4807552140
 H         -1.5613735018        3.8705655276       -2.5703832745
 O         -2.0926545200       -1.1875144035       -0.0848504619
 H         -2.6741404238       -1.6931314281       -0.6873926200
 H         -1.5159056703       -1.8651776193        0.3283777559
 O         -0.9604234301        3.1179773145        0.9584747222
 H         -1.9301958113        3.2671017947        1.0246520155
 H         -0.8331119106        2.5393300695        0.1887153827
 O          0.6673952825       -3.9527557220       -1.8397075550
 H          1.6097065877       -4.0291770805       -1.6755204497
 H          0.4940577573       -2.9889530542       -1.8877387063
 O         -5.7480835929       -1.4591271275       -2.6467534586
 H         -5.2557570551       -0.6257751840       -2.4863546912
 H         -6.1836089308       -1.3638210247       -3.4936519543
 O          1.3014882524        2.8685903465       -1.3993378656
 H          2.0242782590        2.7215741692       -2.0162391153
 H          0.6058048346        3.3492051919       -1.8967541290
 O         -1.6772020237       -4.8085731106       -0.7466028804
 H         -0.8573169560       -4.6537542229       -1.2525936190
 H         -2.3749223808       -4.3022199554       -1.1815036378
 O         -3.6176437757        3.2892683565        1.2254140155
 H         -3.5473718806        3.0288633079        2.1637329220
 H         -4.1758826073        2.5869238297        0.8398139979
 O          2.5099329126       -1.8449740778        3.4447705125
 H          1.6527786960       -1.4019229910        3.5769193833
 H          2.3381187794       -2.5867502398        2.8505259120
 O         -3.6608589847       -0.7075970726        1.9536960331
 H         -4.2718254332       -1.4527438120        1.8024204056
 H         -3.0087475825       -0.7934856305        1.2096424139
 O         -1.8986634909       -2.1640372144        3.4767012152
 H         -1.5865903815       -2.7094421525        2.7293501426
 H         -2.6212595878       -1.6207525033        3.1143532626
 O          3.9026930236        2.0078677139       -2.5954817408
 H          4.5731845795        1.3343960550       -2.7949490523
 H          4.2376228027        2.4656965013       -1.8069677491
 O         -1.2350261548        1.2688259329       -1.0064385807
 H         -1.4820289036        0.3706761874       -0.7268346983
 H         -0.8434314886        1.2092002599       -1.8990504357
 O          4.1339032932        0.3043966524        2.9520357130
 H          3.7029283417       -0.4489946995        3.3914797775
 H          3.5790755915        1.0899064462        3.1480679479
 O          1.9566039778        0.1360076419       -3.3378601390
 H          2.5560060073        0.8742637926       -3.1419310267
 H          2.5381725481       -0.6405742399       -3.4977071054
 O         -3.7469614600       -2.9033850701       -1.3656771450
 H         -4.4529796841       -2.5363657971       -1.9203028039
 H         -4.1647328525       -3.0387561703       -0.4925382428
 O         -7.5642086336        0.5387969354        0.4364872013
 H         -7.9227890219        0.8882796832        1.2521651107
 H         -6.6300662355        0.8387506663        0.3910294496
 O         -0.3020340810        2.1340990130        3.3621317873
 H         -0.4654334045        2.4402722092        2.4429379648
 H         -0.1547210230        1.1741302150        3.3391371351
 O          5.9153926475       -3.3785273882        0.0534493532
 H          6.2038910337       -2.4608379644       -0.1141534160
 H          6.1739426247       -3.5809418952        0.9532530199
