  312
       -524.29522391
 H         -0.0783077340       -0.9012465743       -0.5491117992
 C          0.6549552686       -0.8731238492       -1.3527819272
 H          0.4545318150       -1.6861353269       -2.0507339031
 C          2.0563647222       -1.0360347183       -0.7862480155
 H          2.7727267238       -1.0731927195       -1.6030384961
 H          2.1074596632       -1.9476503040       -0.1966826751
 O          0.5197457167        0.3763241800       -1.9892799793
 H          1.1267812668        0.3684376799       -2.7604025154
 N          2.3669440487        0.1357246878        0.0403590125
 H          1.7784899464        0.1355878403        0.8983151604
 H          2.1590784221        1.0174351967       -0.5042392460
 H          3.3711886307        0.1550849342        0.2739466627
 O          1.9814430838        3.1080493839       -3.8399937082
 H          1.6062153103        3.5896281117       -4.6314107739
 H          2.7889077156        2.6969616326       -4.2016640949
 O         -0.4921555846        2.0855287490       -6.7984760985
 H         -0.3438950807        1.2211951877       -6.3920299424
 H         -1.4233603927        2.2989602580       -6.6245932402
 O          7.4723252267       -1.1465113591        3.1935512132
 H          7.5764605067       -1.7897244270        2.4705502134
 H          6.9017324748       -0.4412886282        2.8083296391
 O          5.6204629374        3.1042519515       -2.7811671066
 H          5.3138363641        3.9336830643       -2.3730965392
 H          5.2883913191        3.0671017807       -3.6919954477
 O         -0.8430910729       -2.7281934797       -4.9232794625
 H         -1.3707040783       -2.6067597379       -4.0871430878
 H         -1.4322057525       -3.1404916179       -5.5548382440
 O         -0.4347950251        3.4513957373       -1.2313631233
 H         -0.7577096430        2.9021209520       -1.9598876587
 H         -0.4535186542        4.3792258971       -1.5617845850
 O         -3.0807298736        2.3572116378       -5.8488282298
 H         -3.2492567208        1.4179178889       -5.6720878832
 H         -3.5161512274        2.8537889139       -5.1450044278
 O         -2.1065372528        0.1514193451       -1.6330976313
 H         -2.8724635708        0.7010324553       -1.8713253911
 H         -1.2977548107        0.6042422493       -1.9205642995
 O          0.9117423007        4.2018727904       -5.9318553156
 H          0.5224433465        3.4318651772       -6.3996206584
 H          0.1425047975        4.6908298038       -5.6026248716
 O          2.0084519114        4.2963040912        3.8292376590
 H          2.0420687877        3.6348080636        4.5385022393
 H          1.8960605867        3.7688204120        2.9972565268
 O          5.7728689404        0.6296870812        2.2114437385
 H          5.6054423576        0.3287274855        1.3076144977
 H          6.2312024895        1.4888892724        2.1563965603
 O         -5.7058596038       -0.2283649279       -0.2062201720
 H         -5.6510830007       -0.8335719317       -0.9729390150
 H         -6.4576636584       -0.5368623468        0.3393174560
 O          1.5395658151       -4.0986058657       -4.4976923808
 H          1.6568968407       -4.0217071985       -3.5233809296
 H          0.6922872666       -3.6709670767       -4.7018759066
 O          7.3385154684        2.8600731692        1.9146814543
 H          7.3532783868        2.6833183909        0.9556056529
 H          7.0296169834        3.7645899298        2.0126977512
 O         -1.7081598999       -2.8097278931        1.1259990227
 H         -1.6949704243       -2.2830347741        1.9443019799
 H         -2.4981643772       -2.5232142217        0.6064180979
 O         -6.5740927495       -1.8118682287        3.6132095210
 H         -7.2664050299       -1.8072974679        4.2735987880
 H         -6.9740735133       -1.4758071906        2.7844590126
 O         -0.7800670215        2.7952174596        1.3361273993
 H         -1.2947679577        1.9668279298        1.2934063115
 H         -0.7792372781        3.1283167700        0.4188831512
 O          1.0696198946       -2.5225345866        2.5911371010
 H          2.0070797298       -2.4067464854        2.8178086923
 H          0.7444551422       -1.6250457793        2.3624512951
 O         -4.0573498000        0.9514774247        5.4724173824
 H         -3.2829028767        1.5006342323        5.2800733607
 H         -4.6787893196        1.1289161830        4.7406784454
 O          0.5061166483       -0.0241434426        2.0066980667
 H         -0.3795475133        0.0612452716        1.5931470550
 H          0.4163028738        0.3107515304        2.9278405816
 O         -4.1475223325        3.7909682559       -3.6145854073
 H         -5.0577360780        4.0478019695       -3.4057624854
 H         -3.6011453284        4.2662118164       -2.9582641277
 O          4.3069836571        2.1309025100        0.4534356073
 H          3.5988136767        2.5125143527       -0.0836910572
 H          4.2426362829        2.5214377294        1.3388973870
 O          3.1064376012        0.5937954901        2.8795288787
 H          4.0688949147        0.6046724490        2.7184873953
 H          2.8912053636       -0.2518982112        3.3035874180
 O          4.8385122689       -1.1315004700        0.3837781908
 H          4.4090523701       -1.5231945496        1.1783396188
 H          4.6395399964       -1.7167485936       -0.3761477610
 O          2.3083215921       -1.1825078778        4.8538923782
 H          2.5392283026       -0.5362353418        5.5229911402
 H          1.3629137146       -1.4149502919        5.0125541492
 O         -6.2524482521       -4.9630983913        0.7548500533
 H         -5.6941400161       -4.3917366179        1.3363805963
 H         -6.7112127921       -5.5834739084        1.3204848855
 O         -1.8113365164       -1.3473899276        3.4520089756
 H         -2.6788890336       -1.4996760478        3.8996144263
 H         -1.7375556753       -0.3969813768        3.3373252812
 O          4.5120513959        3.1747395104        3.0292307289
 H          3.8069295411        3.7027755495        3.4300489248
 H          4.8057479491        2.5332352423        3.7023256522
 O          2.0609019981        2.5672966602       -1.0977616842
 H          1.1256189271        2.8713479898       -1.0510386148
 H          2.2582276496        2.5294369525       -2.0406074286
 O          3.0426793736        6.3504093129        2.1115177564
 H          2.7454693745        5.9334192236        2.9280834012
 H          2.3957494066        6.0726374127        1.4354441488
 O          1.4942091494       -4.2842610827        0.6614528294
 H          0.9416226295       -5.0891783445        0.6986430613
 H          1.1711178165       -3.6799830281        1.3559589890
 O          1.3658170360        5.1235420082        0.3527072252
 H          1.5896610855        4.2313161366        0.6544043219
 H          1.6652287185        5.1837306324       -0.5777902215
 O         -7.7488548801       -1.1252514471        1.2722827815
 H         -7.8560425068       -1.8787478093        0.6316271641
 H         -8.3735982249       -0.4347897788        1.0072859437
 O          7.2036767336       -2.3933081814        0.7704577982
 H          6.3547604348       -1.9122878951        0.6595596800
 H          7.8150136129       -1.9063895699        0.2048358608
 O          3.8546052209       -4.6201572247        1.6928800902
 H          3.5884662251       -5.1891918715        2.4312937107
 H          3.0124190968       -4.5436615832        1.1625400345
 O         -4.7836159321       -3.4224760351        2.3474515260
 H         -4.0961345143       -3.7641518735        2.9565600392
 H         -5.4712581297       -3.0166286844        2.8979554042
 O         -4.2400651899        1.2454915163       -2.8339291060
 H         -4.1606252773        2.1860887451       -3.1049049436
 H         -5.1780317293        1.0089370439       -2.9051526027
 O         -4.4387168080       -2.6509753960       -4.2212357488
 H         -3.9741392101       -1.8449807669       -4.5092316767
 H         -3.7685622449       -3.2295355567       -3.8264303378
 O         -6.5537590598        4.2593116917       -2.3520954676
 H         -7.4338052508        3.8955239659       -2.1988362164
 H         -6.3317774993        4.8096008217       -1.5913577775
 O          3.2388565082       -6.2326408279       -1.1210095348
 H          4.1894648983       -6.1239734127       -1.0348950175
 H          2.9349764107       -6.6332410664       -0.2761092788
 O         -0.4129886652        5.8722569569       -2.3522475834
 H         -0.8027567014        5.6229328132       -3.2077429469
 H          0.5397619304        5.9573899253       -2.4857925624
 O          5.4691548574       -1.5880061427        4.8226151315
 H          6.2846793297       -1.5095136905        4.2599245916
 H          5.7786777437       -1.6744148046        5.7244098543
 O         -3.0791729140       -5.0144963221       -3.2715550921
 H         -3.6751897676       -5.5502023530       -3.7956437582
 H         -3.4335202588       -5.0195593826       -2.3610363084
 O         -0.6631084873        2.2528184294       -3.6441115905
 H         -0.7474781598        1.4529040526       -4.1815210743
 H          0.2853906730        2.4746744394       -3.6815244110
 O          5.2061131867       -0.1410936147       -5.1822178582
 H          5.7289193677       -0.3542328396       -4.3944938787
 H          4.5865612821       -0.8766585107       -5.2757866438
 O         -0.8563054724       -6.1169739421       -2.0080410779
 H         -1.5660249865       -5.8979031159       -2.6312369467
 H         -0.0719477785       -6.3918796029       -2.5386087571
 O          2.2897017984        0.0965061450       -3.9835063533
 H          2.6533831908       -0.7761640609       -4.2290613971
 H          3.0021703853        0.5105751230       -3.4438207252
 O          3.4877646965       -2.2623987811       -4.4731785744
 H          3.9744085856       -2.5722839088       -3.7013609459
 H          2.8368816948       -2.9669696773       -4.6817005810
 O         -5.3725802363        1.2260477682        3.0894276017
 H         -5.0666216378        0.3840489459        2.6942614782
 H         -4.7468695750        1.8908807966        2.7264130009
 O         -5.7332268765        2.3864115677       -0.4001249314
 H         -5.8115266639        1.4124527719       -0.3128347283
 H         -6.0953435404        2.6347348304       -1.2567135531
 O         -3.5303111591        2.8380514796        2.1072680328
 H         -3.2801136326        2.5887200523        1.1831633773
 H         -3.4571424335        3.8127901142        2.1378090230
 O          0.0405778882        0.8044340641        4.4630097672
 H          0.7749138315        1.2768811914        4.8720491740
 H         -0.7222647988        1.4220594727        4.4342270744
 O          2.2533991246       -5.6785843826        3.6433938830
 H          2.6698893253       -5.1093710350        4.3132095979
 H          1.3107619308       -5.4604250971        3.6939229465
 O          4.1381470286        0.8757612012       -2.2458739368
 H          4.8409414819        0.2096060263       -2.3625938592
 H          4.5931330592        1.7253929599       -2.3699470818
 O         -0.1858820807       -1.8671828871        5.5047853590
 H         -0.7240935227       -1.6951731560        4.6963061029
 H         -0.4861424283       -1.2304983435        6.1535563404
 O         -9.0369614798        1.2317881455        0.5110471196
 H         -8.4194117979        1.7215936206        1.1182496451
 H         -9.9222402378        1.4101291861        0.8308243143
 O         -0.4852929948       -3.6435760301       -1.1669067325
 H         -0.6665478782       -4.5900401565       -1.3719896365
 H         -0.7747221413       -3.4634498881       -0.2588010554
 O         -4.0090307880       -1.6234693797        4.8742340397
 H         -4.8672865354       -1.6553523360        4.4295697295
 H         -3.9786105002       -0.7224339691        5.2726621608
 O         -1.4344419066        4.6832374079       -4.5803807613
 H         -1.3037424952        3.7542020471       -4.2932327890
 H         -2.2963107223        4.7160458832       -4.9973617232
 O          4.2900643104        2.3411819330       -5.0442120768
 H          4.6017163594        1.4025115835       -5.0979784464
 H          4.2265102037        2.6527965748       -5.9473328974
 O          4.8770270986        5.2975989576       -1.3552770043
 H          5.3437615983        6.1120988832       -1.5434036894
 H          5.0022852261        5.1404110345       -0.3814832211
 O          8.0435244932       -0.2915583863       -0.8734750164
 H          7.5699314698        0.5560071000       -0.6923709735
 H          8.9064824699       -0.0531815381       -1.2113556915
 O         -3.1055145989        5.4868716033        2.1093880498
 H         -2.4622485973        5.7015670489        1.4059026923
 H         -2.5790500209        5.5293780687        2.9159676767
 O         -3.1694585839       -0.2343291529       -4.7886155050
 H         -3.4964875153        0.2332862198       -3.9899314037
 H         -2.2085381644       -0.2642191170       -4.7317395082
 O         -1.1791674904        6.0393612982        0.2740240105
 H         -0.2915245742        5.6318919051        0.3752642394
 H         -1.0210255487        6.8795608402       -0.1579713081
 O         -6.9000430007        0.8020562952       -3.3408122537
 H         -7.0678258331        0.9827138875       -4.2662487102
 H         -7.5203227014        1.3486936464       -2.8179347579
 O          5.2460281376        5.1156594498        1.2436506407
 H          4.5552904038        5.7473377453        1.5437163840
 H          5.0903763684        4.3375060034        1.8016313207
 O         -0.2156792027       -4.3004989349        4.0970237573
 H         -0.0431820744       -3.9345399681        4.9703813404
 H          0.1578017900       -3.6326898786        3.4817959120
 O         -2.0325296242        2.4224319098        4.2646382962
 H         -2.5638896071        2.4306842737        3.4365519664
 H         -1.5973742717        3.2961643866        4.2514770417
 O          6.7385082405        2.0061306415       -0.5731431765
 H          5.8110967065        1.9907140340       -0.2305483706
 H          6.6474800027        2.4090205627       -1.4491058484
 O          3.8076952506       -2.1739551843        2.5865392146
 H          3.9098946665       -3.1260239521        2.3282544118
 H          4.3329002753       -2.0304345085        3.3837466899
 O         -4.1459956046       -0.8025790966        1.8208579526
 H         -4.5917561470       -0.6121605030        0.9643996265
 H         -4.2476780714       -1.7640306890        1.9306493394
 O         -2.1292062567       -2.2678301603       -2.6921862071
 H         -1.5430168997       -2.8106995402       -2.1174152350
 H         -2.0508270022       -1.3442795684       -2.3714456188
 O          2.5077169918        1.9309524240        5.1311305505
 H          2.7443792930        1.4966215541        4.2762118832
 H          3.3373687149        1.9544061765        5.6176867755
 O         -8.6101079508        2.3407105718       -1.8981195836
 H         -8.6844905899        1.9244764496       -1.0074454705
 H         -9.4959475656        2.3620683987       -2.2621595933
 O         -3.0620844664        2.4385329527       -0.4513349900
 H         -2.8791112711        3.3100674513       -0.8481083734
 H         -4.0221491691        2.3031447193       -0.5568913089
 O         -3.9924868705       -5.1253316254       -0.7157448617
 H         -4.8907629403       -5.2737580275       -0.3828162527
 H         -3.3946127325       -5.3434549105        0.0240889235
 O          5.2051305717        1.2844760735        4.9527182325
 H          5.1328183575        0.3260952227        4.8248638544
 H          6.1663023909        1.4630376213        4.8989971355
 O          3.3735567194       -3.6949174490        5.1723243082
 H          2.9594905794       -2.8175113400        5.0678397565
 H          4.3184136333       -3.5364149165        5.2016404943
 O          2.3537009650       -7.2620233931        1.2180794348
 H          2.4384039621       -6.9213427443        2.1173200844
 H          1.4034247546       -7.2405810164        1.0309794255
 O         -3.0660379379        4.9295970810       -1.4369917221
 H         -2.3198646735        5.4069651815       -1.0391501597
 H         -3.8591985965        5.1350296586       -0.9030573988
 O          6.1094288623       -0.9310540051       -2.6880132302
 H          6.8593443309       -0.7893243071       -2.0839897499
 H          5.6591922400       -1.7362181712       -2.3886178244
 O         -2.4379320458       -5.3099441869        1.5169515773
 H         -2.1340957997       -4.3684401594        1.4384185132
 H         -2.7125173225       -5.4161996305        2.4306862163
 O          7.8310912816        1.5024191468        4.3862737831
 H          7.8822497530        2.0503582458        3.5917825422
 H          8.1123751510        0.6170452183        4.1291251139
 O         -5.2286146892        5.0341421359        0.1890124709
 H         -5.4316288276        4.0896177912        0.2991395950
 H         -4.7922003519        5.3205395375        0.9999232655
 O         -3.7997005436       -2.4221612974       -0.4615171381
 H         -3.4576194798       -2.1825893930       -1.3335676599
 H         -4.0212965692       -3.3667239075       -0.5320185273
 O         -1.8971564502        0.3568898461        1.0375286565
 H         -2.0139645622        0.3444713299        0.0641766943
 H         -2.7087861705       -0.0619849814        1.3925268247
 O         -7.5290187963        2.4865796296        2.2311301555
 H         -6.7371195784        1.9604906960        2.5025879043
 H         -7.8570438197        2.9072479052        3.0251230991
 O          2.1054889204       -3.9519685884       -1.9212799644
 H          2.4372708146       -4.8169519561       -1.5931480804
 H          1.2696665828       -3.8004275428       -1.4376753149
 O          5.7880106398       -4.6323564841       -0.1908344455
 H          5.1574292062       -4.7513264617        0.5462423556
 H          6.4976217205       -4.0757994853        0.1659042845
 O         -0.7540796903        4.6218194135        3.4159647876
 H         -0.7499785799        4.1036356767        2.5891723744
 H          0.1763250363        4.7479825152        3.6546113953
 O          1.3800535805       -6.6790816803       -3.3200601976
 H          1.5568385016       -5.9494044401       -3.9332518697
 H          2.1052634461       -6.7004373511       -2.6810997886
 O         -6.0996451652       -1.7334949523       -2.3827121452
 H         -5.4958801484       -2.1465408666       -3.0477272773
 H         -6.5240591206       -0.9957970317       -2.8377146087
 O          2.2768162733        5.2855951280       -2.2035798955
 H          3.2140942592        5.3562299959       -1.9580922063
 H          2.2047288512        4.5115433315       -2.7963238443
 O         -0.2362611225       -0.0993001872       -5.0366898001
 H         -0.3599328389       -1.0624210470       -5.1368075430
 H          0.6996723293        0.0162452261       -4.8020050550
 O         -0.1713727178       -6.4225277931        0.6160278202
 H         -0.4033666221       -6.5408106402       -0.3176523513
 H         -0.9978392482       -6.1458678936        1.0547072177
 O         -7.7190762012       -2.9921714392       -0.5511446018
 H         -7.1630212117       -2.6333789551       -1.2674452165
 H         -7.2342976657       -3.7512176307       -0.1898584753
 O         -2.9258541212       -4.1940236958        4.1183038908
 H         -3.1499967768       -3.5062545279        4.7549080030
 H         -1.9449814850       -4.2401579458        4.0936524436
 O          1.7871457848        2.7151975208        1.7439355709
 H          0.8186951078        2.5727021482        1.6299171486
 H          2.1750484316        1.8994432590        2.0957441339
 O          4.5026385072       -2.8681678077       -1.6546175172
 H          3.5897334558       -3.2210478922       -1.7337848830
 H          5.0207477099       -3.5918830412       -1.2229021275
