  189
       -320.74619527
 O          2.0252908359        3.5510809226       -3.8893484936
 H          2.9773286789        3.4602005693       -3.7527104511
 H          1.7496739210        4.2814931215       -3.2919949323
 O         -3.4740823431       -1.6563649369        4.7645344309
 H         -4.2137570876       -1.8717979285        4.1678444825
 H         -3.1812948829       -0.7650699419        4.5140251747
 O         -1.1439984247        2.8621430140        4.6941000469
 H         -1.5795826842        2.0138886008        4.3808257949
 H         -1.8002127542        3.3286635328        5.2098723447
 O         -1.7416831840        3.8155502318        0.5742361018
 H         -2.6781353302        3.8327994646        0.3270509102
 H         -1.2420103126        3.6415527004       -0.2544798872
 O         -0.3142974789        3.1887235845       -1.5726392862
 H         -0.7013019142        2.6502280678       -2.2921739781
 H          0.5519484456        2.7927177922       -1.3655269087
 O          0.1001526970        3.9499056898        2.5486134401
 H         -0.3860941141        3.6134364250        3.3279689004
 H         -0.5826690420        4.0832280965        1.8677911464
 O          2.4656162855       -2.9392657856       -2.8942449186
 H          3.0124303322       -3.2201389886       -2.1384790527
 H          2.9430713679       -2.1640424872       -3.2597318473
 O         -1.4500074459        1.2595284429        1.3525713587
 H         -1.5633441293        2.2182229192        1.2124183861
 H         -1.9562419338        0.8514279706        0.6298112284
 O          3.6603493107       -0.6546955862       -3.6586029110
 H          2.8795685469       -0.0629260338       -3.6967296994
 H          4.2952134912       -0.2200720565       -3.0813265873
 O          1.2603547721        5.3563785976       -2.0329599277
 H          0.4796702095        4.8035739734       -1.8568042601
 H          1.7574935003        5.3610798696       -1.2050396354
 O          0.8808760086       -3.9350825383        2.4829369117
 H          0.1313727128       -3.8386919576        3.0874966495
 H          1.5120127640       -3.2445995477        2.7444891270
 O          1.1535053643        1.4406962709        5.3071930945
 H          0.7834381044        0.5537266001        5.1789006375
 H          0.3956167532        2.0387198531        5.1925415874
 O          0.1641694140       -0.9285287099        4.1867031254
 H         -0.3339004900       -1.7700499376        4.2143040929
 H          0.4886350392       -0.8707418170        3.2676539078
 O         -2.0368324865        0.5855011991        3.8322355837
 H         -1.2453751535        0.0397344434        4.0290532231
 H         -1.9596126200        0.7919014956        2.8697008267
 O          1.4488897018        0.8802472114       -3.5915766707
 H          1.6070575911        1.8410802228       -3.6141040810
 H          0.9946459700        0.6704223961       -2.7260270510
 O         -4.2367765996       -1.1831181189       -3.3359133197
 H         -3.2563917673       -1.1490774292       -3.3289897173
 H         -4.4524718573       -2.1276051075       -3.4730698599
 O          0.2227300275       -0.0506009490       -5.7427066383
 H         -0.7075817261        0.1451630728       -5.6100523764
 H          0.6977233297        0.3093306008       -4.9541985139
 O         -2.4637509642       -2.8257151255       -1.0693281622
 H         -1.9157919708       -3.4509016847       -0.5514712763
 H         -2.2546467067       -3.0445942163       -1.9984643489
 O          1.3902778593        1.6954160155        1.6338538003
 H          0.6891001835        1.0359206582        1.4985264966
 H          0.9482092684        2.4950333220        1.9666844027
 O         -6.9744447374       -2.6580265076       -0.7279353404
 H         -7.4227150028       -2.9605898344       -1.5177530811
 H         -6.1931697288       -3.2522462337       -0.6050997400
 O         -2.6126752189        0.4380075798       -0.9411021885
 H         -3.0707807620        1.0292810618       -1.5540491796
 H         -2.3442884214       -0.3243042027       -1.4709728447
 O         -1.4816680851       -3.0201865865        3.6868706024
 H         -2.2023169380       -2.6543826522        4.2532222693
 H         -1.6763044525       -2.6375462796        2.8070191914
 O         -2.0592107612       -1.6788433489        1.3968678119
 H         -2.2675945886       -1.9667849456        0.4979458834
 H         -2.7168397391       -0.9780741937        1.5858222260
 O         -5.2285558422       -0.5917353378       -0.9407501666
 H         -4.7926260288       -0.8320995672       -1.7911979098
 H         -5.9392385872       -1.2437634480       -0.8157087864
 O         -4.7515669459       -4.0747404028       -0.5496000756
 H         -4.5605456726       -4.4755895148        0.3060061066
 H         -3.9733890764       -3.4933670294       -0.7301365675
 O          2.2884017792        2.4713187648       -0.9342251521
 H          2.9425054435        2.6831085712       -1.6314726074
 H          2.2738725172        3.2442750204       -0.3274431501
 O          3.8748134112        0.6772617373        0.2430158082
 H          3.1702353161        1.2925835074       -0.0692464876
 H          4.3472917829        1.1565368550        0.9553231556
 O         -0.9370427747       -4.4351051826        0.4137802803
 H         -0.4139573819       -4.7237187848       -0.3572171196
 H         -0.2888096357       -4.2330676252        1.1091700201
 O         -4.4179847678        3.7000779960       -0.1130061431
 H         -4.7780605945        4.5395620285       -0.3975172370
 H         -4.9857441104        2.9978526758       -0.5239490198
 O         -4.0950323594        1.6095740655       -3.0695549469
 H         -4.2922490739        0.7074348135       -3.3644774987
 H         -4.8964478600        1.9350654283       -2.6474767932
 O          4.3762587718        2.9311652401       -2.5773359371
 H          4.8307584464        2.0755422034       -2.5516770642
 H          4.8216595904        3.4835624072       -1.9047688788
 O         -7.4333965420        1.3945116222        1.3440027497
 H         -7.3950198658        0.4065228055        1.4404280447
 H         -8.2547132393        1.6575482361        1.7584957873
 O         -4.9763953658        2.3059712072        2.2436123240
 H         -5.8992122140        2.0783736799        2.0389459370
 H         -4.6834588668        2.9060212445        1.5412540213
 O         -1.5960754180       -0.8915205599       -3.1503875585
 H         -1.3501847951        0.0362744508       -3.3132340914
 H         -0.9159464042       -1.4506706011       -3.5687291613
 O         -1.3773713261        1.7935981701       -3.6166135991
 H         -0.9720772153        2.2538284700       -4.3888041771
 H         -2.3250589371        1.9800846411       -3.6120764181
 O          4.1103299055       -3.4465646090       -0.7565114808
 H          4.1144415407       -2.8648970454        0.0305221849
 H          4.9337646937       -3.2184432419       -1.2154002433
 O          6.2868754834       -2.0880744501       -1.8631781536
 H          6.4421748636       -2.3153030010       -2.7803497523
 H          5.9794467829       -1.1528399050       -1.8625597003
 O         -3.3477191931       -4.4177817729        1.8609864514
 H         -3.0440795610       -4.4440489125        2.7733060632
 H         -2.5392865014       -4.4975377343        1.3281561293
 O          7.0581733777       -2.0388251714        0.8374055582
 H          6.1246529478       -2.1055035777        1.1160075643
 H          7.0294423032       -2.1138676210       -0.1272033763
 O          5.5851985911        3.9758262677       -0.4123793954
 H          5.1977653968        4.2516799494        0.4262161388
 H          6.2229792738        3.2756337089       -0.2133305564
 O          2.4448577793        3.9136209122        4.1589151758
 H          1.6441555969        4.0923351988        3.6497637236
 H          2.2423930260        3.1526005755        4.7126121454
 O         -7.4706238133       -1.2348624817        1.6337207785
 H         -6.7434485085       -1.6238281605        2.1515836323
 H         -7.4851242983       -1.7372483063        0.8074194182
 O          5.1614619935        1.6042274674        2.3814277876
 H          4.4794794061        1.1874975698        2.9492885398
 H          5.9759164311        1.0835119652        2.4299323104
 O         -5.1106430979       -2.2559561633        2.6385617920
 H         -4.6235107777       -3.0039427388        2.2658418565
 H         -4.7397445650       -1.4471981707        2.2140209815
 O          2.1983723419        4.6400457422        0.6037589049
 H          1.4700076868        4.5936961562        1.2325227347
 H          3.0174318025        4.5633883365        1.1363015866
 O         -4.1202036173       -0.0873204969        1.4985926062
 H         -4.4138877074       -0.1416850474        0.5700655841
 H         -4.3610989327        0.8010401205        1.8462136146
 O         -6.1059095835        1.8893072752       -1.0280785218
 H         -5.7573805812        0.9635518161       -1.0188610231
 H         -6.7473802428        1.8862396233       -0.3006483827
 O          5.5301181589        0.4998962454       -1.7617390350
 H          6.3027283502        0.9509283822       -1.3819095591
 H          4.8637696916        0.5083682853       -1.0211969832
 O         -0.0134906560        2.8777671388       -5.6232966109
 H          0.7335723415        3.2649286080       -5.1353502469
 H          0.3431033424        2.1222636687       -6.1043633123
 O          4.4271966016       -1.7905002901        1.3249375845
 H          4.1898254029       -0.9101843846        0.9824257004
 H          3.8524386407       -1.9626916879        2.0931830151
 O         -1.6577070727       -4.1028038990       -3.3134851481
 H         -1.0158881037       -4.6497554930       -2.8392004135
 H         -1.1204712090       -3.5723784234       -3.9229438098
 O         -4.4748365074       -3.8814700147       -3.4008113563
 H         -3.5462468603       -4.1181713175       -3.5409994698
 H         -4.6943034583       -4.1916387572       -2.5132114815
 O          0.6049786352       -4.8495060905       -1.7999071575
 H          1.2498792696       -5.2528455888       -1.1847971585
 H          1.1135129879       -4.1740827794       -2.2706246228
 O          7.4153067574        1.8198125981       -0.2591049943
 H          7.4564448956        1.3068024717        0.5759623380
 H          8.3073968188        2.0965434734       -0.4676357346
 O          7.5476018843        0.2646001182        1.9364746121
 H          8.3114556431        0.1562969827        2.5026567386
 H          7.3854948783       -0.6272019351        1.5113159622
 O          0.1965420257       -2.4443261713       -4.4669074987
 H          1.0328401195       -2.6331083965       -4.0168025042
 H          0.3752673044       -1.7456728625       -5.1253357661
 O          4.3293292234        4.1862091532        2.1918194698
 H          3.7833863882        4.2629882216        2.9943091184
 H          4.6982156278        3.2883012316        2.2491061698
 O          2.2955725295       -5.3409882334        0.2410654891
 H          3.0381777057       -4.7848612939       -0.0386864337
 H          1.9638477097       -4.9819535978        1.0725165625
 O          2.9219888052        0.5894455774        3.4299831326
 H          2.3878616598        0.9720968239        2.6770286864
 H          2.4722442067        0.9342991621        4.2205537164
 O          2.7548357719       -2.0459115558        3.4199130388
 H          2.9827704032       -2.3295329868        4.3050831915
 H          2.7134520229       -1.0537260136        3.4455335246
 O          0.4985037198       -0.9078524596        1.4817109239
 H         -0.4479026076       -1.1552955138        1.3939345786
 H          0.9427180614       -1.2315998904        0.6969461948
 O          0.3743031320        0.3551644748       -1.1703649334
 H          0.9118280575        0.8710578527       -0.5590153374
 H         -0.5559355499        0.5055725220       -0.9556774052
 O         -2.8652166848        4.4361023951       -2.8709424951
 H         -2.6151064524        4.6042118383       -3.7801018102
 H         -2.0557011657        4.2658749076       -2.3832241498
