  131
       -218.47139624
 H          1.1581122480       -1.6171075491        0.1468545277
 C          1.3053302127       -0.5701888030        0.4186146451
 H          0.5006500617       -0.2573429756        1.0845484700
 C          1.3395089716        0.2885164822       -0.8425490996
 H          0.4525253823        0.0767730261       -1.4344274701
 H          2.2207603454        0.0167273225       -1.4243275002
 N          1.3900959495        1.7186483996       -0.5918270475
 H          0.5880826042        2.0198187725       -0.0527248422
 H          2.2335912981        1.9691119025       -0.0889639019
 O          2.5086773630       -0.4298794693        1.1609582182
 H          3.2709691694       -0.6612995756        0.5583978973
 O          2.4817078991        3.8374702840        1.7791435611
 H          3.0481500336        3.7790251847        0.9919492541
 H          1.6396821766        4.2119129698        1.4772973430
 O          0.3196146216        1.0148569335        3.8760176162
 H          1.2476073575        1.2420517251        3.5855122973
 H          0.1087476001        1.6181007772        4.5888492940
 O         -3.2762179724       -1.4102570608       -4.1827854976
 H         -2.5893119545       -0.7926025879       -3.8242449051
 H         -3.1833557593       -1.3922868641       -5.1348692015
 O         -3.8351903293       -2.6580210375        0.7391151025
 H         -3.4035070249       -3.5274851909        0.5418098550
 H         -3.2325175962       -1.9801582034        0.3677873527
 O          1.3854473769        3.0993403053       -2.9033927134
 H          1.4047172163        2.5438707268       -2.0807806779
 H          1.5763369893        4.0028221607       -2.5813633793
 O          6.2095600914        2.1386522973        0.6317329419
 H          7.0791878721        2.5379532757        0.6401573400
 H          6.1927721813        1.5119319606       -0.1477469341
 O         -1.4663206264        2.7626329842        0.0600263314
 H         -1.5135615828        2.0241652822        0.6967719202
 H         -2.3588098091        3.2055253039        0.0972992540
 O         -2.4865626736       -4.7863745182       -0.0323149031
 H         -2.4706970117       -4.4885911138       -0.9539657120
 H         -1.6100594891       -4.5602400733        0.3272153870
 O         -5.2770725022        1.5848235758        0.9099706576
 H         -6.0701478191        1.0484373311        0.7091072660
 H         -4.8574280575        1.1910617495        1.6935903418
 O         -7.1323889419       -0.0716486410       -0.1337289239
 H         -6.7936924399       -0.9801771222       -0.2227887884
 H         -7.2557530673        0.2412361721       -1.0333576713
 O          4.5211912582       -1.3471445442       -0.2407154566
 H          4.0885351432       -2.1371936829       -0.6359658186
 H          5.0239725927       -1.6497478459        0.5341252672
 O         -0.1673801237       -3.6915689516        0.9521731873
 H          0.6857516175       -4.0866432392        1.1956279925
 H         -0.5287769010       -3.3043978841        1.7728100777
 O         -4.0170605611        0.8315743507       -1.3015010387
 H         -4.6567769297        0.3006415420       -1.8323132175
 H         -4.4944017743        1.1487929169       -0.5014891948
 O          5.4097342371        0.7873238841        2.8843575452
 H          4.5119237823        1.0939031415        3.0995910635
 H          5.6965898811        1.3129074356        2.1146557747
 O          2.0677943635        5.2283082592       -1.4032281287
 H          2.8665750632        4.7963405347       -1.0722904527
 H          1.4041932440        5.1449267344       -0.6999555194
 O          2.9913670964       -2.2812966671        3.0104514608
 H          3.9621473759       -2.2136620834        2.9843376018
 H          2.7023474342       -1.5859366717        2.3769458373
 O         -1.5036308981        0.7007586613        1.8238387326
 H         -2.3812781196        0.7020392058        2.2540177750
 H         -0.8584819662        0.7920380386        2.5473339597
 O         -3.9202839384        3.2999309727       -2.5317180689
 H         -3.0110251338        3.3455789487       -2.8576537213
 H         -4.0246679305        2.3708550863       -2.2601307785
 O          3.8874876588        1.9828746742       -2.8499051500
 H          3.0910376873        2.4615635657       -3.1456835591
 H          3.6713760843        1.0429498761       -3.0029695418
 O          5.5571898455       -1.7498616844        2.2943810605
 H          5.5050040529       -0.7785828601        2.5274923915
 H          6.4287037911       -2.0365044841        2.5660549475
 O         -1.3610188419       -0.0167293217       -3.0016352573
 H         -1.5529145113       -0.2774835057       -2.0867547513
 H         -1.3606971930        0.9750060618       -2.9992497293
 O         -3.8983691056        0.5543252974        3.0657905109
 H         -3.8680182375       -0.4400618261        3.1976336654
 H         -4.1354554705        0.9328868255        3.9120016228
 O          0.1608482772        4.7796194297        0.6128694762
 H         -0.4051712025        5.5394251829        0.7508261446
 H         -0.4386256727        4.0281612826        0.3847198499
 O         -6.0383343564       -2.5530145194       -0.6858722307
 H         -5.2187737320       -2.5990809237       -0.1290192227
 H         -6.5010356482       -3.3806420251       -0.5581169915
 O          3.3821783180       -0.6687434187       -3.1606574139
 H          2.4781634039       -0.9101931178       -3.4678943128
 H          3.9876241923       -1.2682779718       -3.5958726552
 O          0.9079163464       -1.4511519854       -3.7720975969
 H          0.7997505300       -2.1367589403       -3.0957274577
 H          0.1634433183       -0.8415225935       -3.6428219156
 O          2.3912753301       -4.4258593930        1.5947532870
 H          2.6208307012       -3.6526118851        2.1733739645
 H          2.7809542464       -5.2018964775        1.9962376775
 O          0.8144522142       -1.5957482922        4.6125924011
 H          0.6554444340       -0.6602526613        4.3918716054
 H          1.6588189016       -1.8390314886        4.2005715247
 O         -3.6644912679       -2.0079493553        3.3378994502
 H         -3.8896211851       -2.3228621569        2.4391998432
 H         -2.7250072728       -2.2416602065        3.4429001497
 O          2.7255722374        1.5207203478        2.9948053820
 H          2.6601659721        0.8950869402        2.2465841687
 H          2.6639461566        2.4276933395        2.6073678800
 O          3.1144799823       -3.5038752860       -0.9603011168
 H          2.2886961292       -3.4195288163       -1.4542041786
 H          2.8771976441       -3.9218061824       -0.1174093743
 O          0.3533562204       -3.2738246035       -1.7287561112
 H          0.1959528013       -3.3508586341       -0.7736365130
 H         -0.5358462255       -3.3586232153       -2.1137454016
 O         -5.5529728636       -0.7657388952       -2.7427220317
 H         -4.8597166569       -1.0507824241       -3.3610303378
 H         -5.7358168253       -1.5215448270       -2.1628297969
 O         -2.3259882232       -3.0463233814       -2.1799899963
 H         -2.7205257869       -2.6839317595       -2.9884112518
 H         -2.2867677798       -2.3029168212       -1.5594041775
 O          5.9951078045        0.6146507678       -1.4702739913
 H          5.4494140593       -0.1394151461       -1.1807323462
 H          5.4436007050        1.1208412280       -2.0817786571
 O         -1.0696151275       -2.9278504447        3.4018799356
 H         -1.1746386654       -3.7381435082        3.9025346819
 H         -0.3711840075       -2.3986943125        3.8783531310
 O         -1.2382837360        2.5920084567       -2.6972911210
 H         -0.3253697123        2.8523154431       -2.9472640441
 H         -1.2728458855        2.6492104277       -1.7244097156
 O          3.9863926826        3.3310315757       -0.4640799116
 H          3.9643592962        2.8578694626       -1.3216087681
 H          4.8117204920        3.0526963043       -0.0342481954
 O         -2.2221638265       -0.7984834200       -0.4141668911
 H         -1.8126351657       -0.3691857640        0.3530948160
 H         -2.9246968658       -0.1575203730       -0.7283836543
 O         -3.8225419603        3.8861951883        0.0863141915
 H         -4.4557786743        3.2532054049        0.4519622409
 H         -3.9657375778        3.8683749215       -0.8873612252
