  534
       -906.58012155
 O          3.6628527489        0.6133704381       -1.2907274309
 H          3.5462242243        1.3501360720       -0.6674176952
 H          3.4686952930       -0.2176822965       -0.8096984755
 O          8.6377850487        3.8113972170        0.4793444831
 H          8.0497668188        3.5874609099        1.2195807588
 H          8.3590148356        4.7204509601        0.1886496134
 O         -5.4295128683        0.9720367072        3.8072974524
 H         -5.2826536925        0.0932937902        3.3980496898
 H         -6.3967390588        1.1242741433        3.7662200014
 O         -2.8173969755        2.3013334143        3.4137911151
 H         -3.5562958032        2.5591663408        2.8237313799
 H         -2.9820609301        1.3879263878        3.6828803491
 O         -2.0209089845        0.5438130471       -5.4218675309
 H         -2.8795819115        0.7332693166       -5.8458574244
 H         -2.0343824162       -0.3997560369       -5.1767140686
 O          3.3598513657        2.7949058627        0.2915737344
 H          4.3336565886        2.6781832310        0.3934741447
 H          3.2457339549        3.7462028769        0.1226146392
 O         -2.6336099898       -0.4540611712        4.2609442760
 H         -3.3567460079       -0.8710359457        3.7620115451
 H         -1.8165373660       -0.8541677342        3.9157107868
 O          1.0420354543        4.4264324795        0.3672492010
 H          1.1880532985        4.3221587339        1.3370803943
 H          0.4929015856        5.2133483585        0.2540397697
 O         -2.4726448437       -4.7852449471        4.4136683539
 H         -1.9984621571       -5.5249971390        4.0058143442
 H         -1.8039244066       -4.3404980019        4.9709923072
 O          3.5192740958       -0.0877162809       -3.9179359697
 H          3.7876507113       -0.0799163274       -2.9878389617
 H          4.0904698935       -0.7427797440       -4.3661890351
 O         -2.8427417157        2.0874586725       -3.3518728951
 H         -2.3458592974        1.5326875076       -3.9884454039
 H         -2.2886109465        2.1651558810       -2.5520763984
 O         -1.2415593035        2.4307403746       -1.2149279411
 H         -1.2997502508        2.8124090334       -0.3163975233
 H         -0.4123634839        2.7667684117       -1.5965232149
 O          3.4035344827        2.6385598005       -3.2459433136
 H          2.5568669913        2.9349466276       -2.8543666328
 H          3.2901031179        1.7302546417       -3.5601772947
 O         -2.3010710612        4.9564081646       -2.6143208419
 H         -2.8745140583        4.4308879112       -2.0189627742
 H         -1.9875925753        4.3466306705       -3.3148900845
 O         -2.4045193355       -0.5699941897       -2.5064245584
 H         -2.8891257343        0.0632909696       -1.9178449440
 H         -2.9337643153       -0.7227249963       -3.3081137756
 O         -4.1988223643        4.0172292141       -0.8964959761
 H         -4.9043475871        3.7732910493       -1.5313802693
 H         -4.4880487119        4.9037951139       -0.5865794526
 O          0.0460882625       -1.6356224201       -2.1643221998
 H          0.5102802910       -0.7978805254       -1.9379174939
 H         -0.8440677347       -1.3221791455       -2.4100977980
 O          0.1593248282        1.5804011309       -3.9652178118
 H          0.4524253485        1.4893341847       -3.0372088237
 H          0.2053550156        0.6670652406       -4.3085371508
 O          1.0833456902        0.7135665038       -1.6586359367
 H          2.0623436587        0.7042048715       -1.6942702762
 H          0.8645409469        0.9971069816       -0.7528234120
 O         -6.4301725084       -2.9365614142       -5.7658380503
 H         -5.5403279499       -3.3008303793       -5.6299788166
 H         -7.0102676609       -3.5327096494       -5.2807230937
 O         -3.9367534232       -1.2541050215       -4.5772504878
 H         -3.8528507343       -2.2189589900       -4.6885195564
 H         -4.7637733320       -1.0051567867       -4.9979797095
 O          1.4722108478       -1.0469615398       -7.3569241072
 H          1.1290208885       -1.9550055853       -7.2559030305
 H          0.7418977863       -0.4290962354       -7.5630245353
 O          3.6368308311       -3.0299304485       -2.7272870008
 H          4.2549958426       -2.4344141097       -2.2720974255
 H          4.1666761405       -3.6856986313       -3.1999203145
 O         -1.0148580413       -5.7639331743       -0.6486719759
 H         -0.9952626812       -4.8025862545       -0.4069223952
 H         -0.4043979665       -5.8354558502       -1.4010114376
 O         -0.7948340498       -3.2031261878       -0.2209706344
 H         -1.7188820719       -2.9193299425       -0.2168708079
 H         -0.4080594463       -2.7081308573       -0.9781813835
 O         -5.1805585277        0.8456331072       -3.2186319464
 H         -5.4570686047        0.6627376895       -4.1268308426
 H         -4.3141614955        1.3100364520       -3.2435365797
 O         -8.0436516797        1.6663114730        3.9490571621
 H         -8.5423809820        1.4578156055        3.1402977999
 H         -8.0241791606        2.6384920050        4.0470951202
 O         -6.1990738146        3.8056774255       -2.6815685530
 H         -6.7721661088        3.0247966935       -2.6562948109
 H         -5.7129284036        3.7754342217       -3.5331848040
 O         -3.3405725592        5.9194802154       -5.0384848193
 H         -2.5916380543        5.9544506470       -5.6369870669
 H         -2.9760198308        5.8464636239       -4.1430320796
 O        -11.0842722911       -1.0732153289       -0.5532576339
 H        -10.7986270297       -1.9780160713       -0.7622405620
 H        -11.2858741299       -1.0601622200        0.3921126009
 O          5.8624051374        2.2533381778        0.5952444939
 H          5.7535829941        1.2942006959        0.7920634204
 H          6.2109110569        2.7015014086        1.3860924372
 O         -1.2976909147       -2.0561720801       -4.8331142583
 H         -1.2712680747       -2.6537423027       -5.5847049701
 H         -0.4036652525       -1.6887327697       -4.7085517634
 O          2.1722161733       -7.3839362538        0.7451050547
 H          1.2975314206       -7.7936119133        0.7800766313
 H          2.0281896309       -6.4752073944        0.3883790516
 O          2.5686622392       -3.8976722691        3.3344020228
 H          3.3537151968       -3.3545999239        3.1042203620
 H          2.8432683294       -4.8343364387        3.2077885045
 O          5.0047372652       -5.1561353565       -3.9885933193
 H          5.3648111456       -5.2129928168       -3.0677389286
 H          5.7386045123       -4.8091230894       -4.5016205958
 O         10.6240678452        0.8145037926        2.5786546304
 H         10.8947452298        1.7280166376        2.3993401604
 H         10.9428864787        0.3148027909        1.8040882208
 O         -7.4504867118        6.0334667770       -1.6423715708
 H         -8.2863151768        5.7799908658       -1.2337316423
 H         -7.1083758398        5.2510912516       -2.1095082639
 O          5.7907471740        2.6476691256       -2.0247795287
 H          5.8898451920        2.4706740309       -1.0701205270
 H          4.8410677259        2.5733144519       -2.2436649822
 O         -7.5146944961        1.4304014663       -2.1819822824
 H         -6.6032698117        1.1387053017       -2.3917405456
 H         -8.0583497723        1.0365407780       -2.9101176512
 O         -6.4403976732       -0.2435317057       -5.5197607604
 H         -6.5364628949       -1.1984519821       -5.7211725817
 H         -7.3099667383        0.0190025573       -5.1826261405
 O         -6.3484788674        1.1453248094        1.0907447077
 H         -6.7515971536        0.4538093833        1.6438650463
 H         -7.0513084090        1.7535538784        0.8278761512
 O          6.2861588685        3.6017254963        5.3428506719
 H          5.4082867574        3.6365321793        5.8052363919
 H          6.9408348143        3.8318039848        6.0002751380
 O         -1.3719124049        3.3401954950        1.3092332135
 H         -1.6764551589        4.2608164579        1.3803422029
 H         -1.7076577944        2.9008425882        2.1038700129
 O         -7.7619369105       -0.5914091559        5.5110243284
 H         -8.0609648685        0.2625561648        5.1614277120
 H         -6.9712787111       -0.3914051530        6.0312901995
 O         -4.8773145823       -4.8473408292       -2.4197619585
 H         -4.3372968696       -5.6248671087       -2.1731575243
 H         -5.3059669395       -4.5750733129       -1.5851564713
 O         -1.4129535718        1.4955816238        5.7874990144
 H         -1.9046903869        0.7935256777        5.3344180557
 H         -0.7073524932        1.0505431826        6.2825194561
 O          4.2137972556       -3.9020161413        0.2002250755
 H          4.7906823314       -4.2297949248       -0.5194001693
 H          3.3518527520       -4.3500808526        0.0973691076
 O          0.0318030189        6.9808261649       -0.2059319295
 H         -0.8997886746        7.2276947076       -0.1700490633
 H          0.2174869727        6.8236958621       -1.1470352747
 O          0.8787146954        1.6644323387        0.8275319760
 H          0.2886254106        1.6478211182        1.5927183733
 H          1.0051070580        2.5994074173        0.6148011242
 O         -3.8037982485       -3.8273315374        1.0509170537
 H         -3.7576877180       -3.4564946886        0.1577853023
 H         -3.1923825398       -3.3094370136        1.6117755859
 O         -4.5525456488       -2.2780863803        6.7175728112
 H         -3.6212284513       -2.1955293009        6.9720959884
 H         -4.8759286918       -1.3607575547        6.6484455708
 O          3.5248290748       -3.9590007928       -6.1507082174
 H          3.7823696501       -4.6354288461       -5.5175473073
 H          3.9974391263       -3.1538723663       -5.8682813523
 O          1.0826683526       -0.7777901800       -4.7164736374
 H          1.9438812267       -0.6119380084       -4.2811022298
 H          1.2958395511       -0.8625520525       -5.6635343717
 O         -3.2532806054       -2.7427630060       -1.3645202918
 H         -2.8479342034       -3.4211705420       -1.9444497578
 H         -2.8496001534       -1.8965410636       -1.6857273810
 O          8.0139728907        1.2252680430        2.0350090282
 H          8.9239803202        1.1621769677        2.3764316448
 H          7.3991503455        1.4150647152        2.7694900272
 O          8.5449225520        1.9851960547       -5.5886616235
 H          7.6320010232        1.7968469667       -5.8431344459
 H          8.5010045501        2.8059452139       -5.0745069312
 O          5.3416434877        3.6275706890       -4.8724737457
 H          5.5358397299        2.7902654038       -5.3328683224
 H          4.6804942125        3.3827309093       -4.1978314539
 O          0.6388296389       -1.5005972377        1.3038390236
 H          0.1193940955       -0.8776140515        0.7612949672
 H          0.3642546474       -2.3738982678        0.9884140969
 O         -2.1349552313        4.4079173757        4.9611051075
 H         -2.8563910163        5.0252656826        4.8120323563
 H         -2.3706140435        3.6069835892        4.4443625774
 O          7.6947158933        0.2825742565       -0.5212147779
 H          8.0279749031        0.9839506133       -1.1030699764
 H          7.6973902139        0.6788102235        0.3630959433
 O          1.1234745952        3.5417773184       -2.1305245167
 H          0.8585744187        4.3890203466       -2.5299976502
 H          1.3195372661        3.7634016446       -1.2030163182
 O          2.7583442429        0.0291297253        1.7662722894
 H          2.2284461244        0.7904782245        1.4541096874
 H          2.2707886457       -0.7423359129        1.4174751338
 O          9.3143934241       -1.7563711820       -0.2260370367
 H          8.6279541677       -1.0463033649       -0.3108103517
 H         10.1512111237       -1.2884322442       -0.0700977550
 O          1.7822347646       -4.9133415473       -0.1116016801
 H          1.1063260184       -4.5798910226        0.5198426306
 H          1.3799363131       -5.0412976500       -0.9869435434
 O         -1.6805795428       -4.0302446359       -2.9685762736
 H         -1.5596915844       -3.3333113218       -3.6376846215
 H         -1.6767568131       -4.8795382145       -3.4279151830
 O          1.2563332685       -6.6150076794        4.9020678588
 H          2.0588606284       -6.6997193019        4.3643029788
 H          1.4073880951       -5.8488395207        5.4712058529
 O         -9.8147732565        4.8725800074       -0.2499054933
 H        -10.4358839247        4.2022021226       -0.5724007376
 H         -9.9388117848        4.8733480118        0.7185526768
 O         -6.5086482093        4.7879484811        1.7570326784
 H         -5.7379768112        4.1673486845        1.8361382379
 H         -7.0844729867        4.3376455554        1.1146129725
 O          0.2997060292       -4.2262915868        1.9996907776
 H         -0.0713737219       -5.0379844886        2.4021091623
 H          1.0919060363       -3.9936744099        2.5278843781
 O         -0.5082340368       -3.2718640778        5.3591279150
 H         -0.3183169259       -2.5765249118        4.6930452583
 H          0.3672647420       -3.6227650543        5.6431780940
 O          5.6460431126        6.0900271449        1.6175005259
 H          5.0053250898        5.8541476186        0.9167132022
 H          5.1014008239        6.1747741739        2.4144966246
 O          3.5855390038        5.4636795249       -0.0067544253
 H          3.4280009592        5.6303186131       -0.9518930367
 H          2.8801447507        5.8973494923        0.4909415290
 O         -4.8047848798       -1.4742399045        2.8581329928
 H         -5.3142226108       -1.6241488675        2.0429769184
 H         -4.9146652012       -2.2834527065        3.3957411869
 O         -5.1365783749        3.4762491357        4.8827620779
 H         -5.1751784539        2.6465981946        4.3772296909
 H         -4.6143213635        3.2603003303        5.6741068144
 O         -1.1823254692        3.7822445274       -4.7963503766
 H         -1.5991904270        3.5458358926       -5.6533471000
 H         -0.7016881992        2.9873967169       -4.5018048278
 O          5.8659848576        1.1179289218       -5.7029664258
 H          5.9302900389        0.7542548962       -4.7816754261
 H          4.9955901436        0.8442662183       -6.0426397780
 O         -0.1808585404        1.0834184123       -7.2786285819
 H          0.4816929546        1.6777764973       -6.8826276264
 H         -0.7999179972        0.8464198944       -6.5509976226
 O          5.7584233125       -5.2917937679       -1.4902755490
 H          5.4753146027       -6.1416115012       -1.1064011022
 H          6.7224951273       -5.2010718610       -1.3141466022
 O         -1.9390765017       -2.7913885599        2.6346400965
 H         -2.2268629445       -3.4003747844        3.3368381193
 H         -1.1318213640       -3.1993292360        2.2708352075
 O          1.7658109071        6.8034779391        1.8989823449
 H          1.1264443927        6.6622471522        2.6098280884
 H          1.2271466830        7.0843924772        1.1431803523
 O          0.0191092892       -1.1259029562        3.7993356936
 H          0.1893330717       -1.3652667587        2.8529751970
 H          0.9215098716       -0.9520413772        4.1625791547
 O          5.0931725248       -1.9338580865       -5.1396711730
 H          5.6627861009       -2.3524115025       -4.4579260091
 H          5.7131663544       -1.6867075944       -5.8470971383
 O          0.1965576251        6.0359079172       -2.7275409237
 H          0.2597302384        6.1892397165       -3.7067546048
 H         -0.7116293083        5.7074344558       -2.5996617668
 O          1.2960379443        3.9253017532        2.9355119977
 H          0.8262037690        3.0897519698        3.0821736419
 H          0.7276538457        4.6281178371        3.2934193586
 O         -8.7615993154        0.0695284473       -4.0336881553
 H         -9.6708724832        0.2815403191       -3.7429501979
 H         -8.5698513539       -0.8273597422       -3.6843282190
 O         -6.2990209755       -1.8158243185        0.4395997706
 H         -5.9058683538       -1.5913431743       -0.4245664059
 H         -7.1532308540       -1.3578257028        0.4351411856
 O         -7.7491533465       -3.3204053536        4.7647012566
 H         -7.8637277726       -2.4488760966        5.1648868109
 H         -6.7981402397       -3.4873775656        4.7470391920
 O          3.8826976214        2.8370827250        2.9201520161
 H          3.8901921930        3.8021645745        3.0919624341
 H          3.4585082529        2.7331213113        2.0468595422
 O          2.2209516676        5.6349155863        5.6645245232
 H          1.7552604650        6.4703883187        5.6372772663
 H          1.5259801089        4.9343896613        5.6256833641
 O          3.0629109008        5.8210035503       -2.6549036997
 H          2.1968891772        6.2351347750       -2.5910922577
 H          3.0545879388        5.3819565046       -3.5306889060
 O         -5.3110695248        6.3337023819       -0.0962623741
 H         -6.0533751884        6.4077371478       -0.7363306224
 H         -5.7343485770        5.9583583502        0.6997104130
 O         11.0339488945        3.3339575891        1.4378420000
 H         10.1165025604        3.5375869144        1.1152067977
 H         11.4301283885        4.1712531224        1.6758758472
 O          7.2970527463       -1.3124950588        2.4273475723
 H          7.9233286107       -1.5694011362        3.1195802234
 H          7.5770979264       -0.4176392636        2.1592903161
 O         -4.9276577193       -3.6206153005        4.4755608147
 H         -4.1218551737       -4.1623856331        4.4398420980
 H         -4.8461092494       -3.1489246346        5.3416848079
 O         -0.0688927659        1.5854389091        3.3994038239
 H         -0.5926781323        1.8653846960        4.1650878433
 H          0.0070094358        0.6185055645        3.4945820733
 O          5.9696235024        1.3725706031        3.8191490559
 H          6.1824314727        2.0076215484        4.5201033597
 H          5.1880534944        1.7664754128        3.3825252988
 O         -2.2819938081        5.8131376366        1.7465900076
 H         -2.5150550128        6.2868500236        0.9278811916
 H         -3.0761430982        5.7628328569        2.3097708818
 O          8.7695332244        2.4225134778       -1.8030587939
 H          8.6296544810        2.9436941015       -0.9824937899
 H          8.3702014017        2.9530036815       -2.5239856972
 O          8.3178725162       -4.7632162317       -0.9119289505
 H          8.7344896486       -4.2807771357       -1.6299701702
 H          7.8925486134       -4.0858923326       -0.3333298938
 O          5.5385232107       -5.7818896161        1.7914845558
 H          5.1895376304       -5.0499198967        1.2484941090
 H          6.1880930216       -5.3633161379        2.3789894656
 O         -0.5412160538       -7.8672390901        0.8623507480
 H         -1.2220926583       -8.5065768152        0.6559672903
 H         -0.7466468511       -7.0597617037        0.3262442053
 O         -5.2475222130        0.3249074088        6.3745072121
 H         -4.7404989343        1.0179526250        6.8144456932
 H         -5.2249555861        0.5539135688        5.4160564113
 O          3.2185157430       -6.9940175741       -2.8390467793
 H          3.7263326670       -7.2752180828       -2.0702573740
 H          3.8098117350       -6.4563210199       -3.3824210534
 O         -4.6097509727        3.0138480451        1.6064627472
 H         -4.3144337430        3.2862039175        0.7152895140
 H         -5.2098361748        2.2365978728        1.4755834544
 O          2.4538723355       -0.4427889258        4.3485272997
 H          2.4516523067        0.4730586565        4.7014303256
 H          2.7246837565       -0.3492100014        3.4100912521
 O          5.2252570651       -0.2787409151        0.9851498791
 H          5.6870242118       -0.7977216153        1.6571221806
 H          4.2969552413       -0.1834021072        1.2945699573
 O         -3.9913193674       -3.9003475398       -4.8931450350
 H         -3.1898240830       -4.2863020291       -5.2758145441
 H         -4.1541832422       -4.3018499899       -4.0239010726
 O          2.7508145756       -1.7008714138       -0.3949664850
 H          2.1575344852       -2.0370337036       -1.0684229535
 H          3.3673750776       -2.4231301554       -0.1832189212
 O         11.5413684558       -0.2939128963        0.2440988777
 H         12.4255882249       -0.6309567849        0.1062500652
 H         11.4705804302        0.5468813947       -0.2908783177
 O          5.2614958767       -1.0602795354        4.8824467825
 H          4.9659665974       -1.5637801326        4.1110539054
 H          5.5399431954       -0.1964993903        4.5301072228
 O         -4.5787826287        3.5509264048       -4.7829421295
 H         -4.2441787438        4.4329829899       -5.0432045998
 H         -3.8593456948        3.1429727693       -4.2589372130
 O         -7.6680192962        4.3190629325        4.1136431242
 H         -6.8980440469        4.1761041236        4.6834164998
 H         -7.2881922181        4.5773470911        3.2442169054
 O         -8.3567903775       -5.6363987038       -1.1962641620
 H         -7.5717967857       -5.1909002742       -0.7792045639
 H         -8.6179014629       -6.3326704520       -0.5945463713
 O         -6.3075299854       -4.4041746614       -0.1146906842
 H         -6.3679085971       -3.4448904106        0.1076159976
 H         -6.0551167978       -4.8231320629        0.7293022864
 O         -8.4828727510       -0.2050749545       -0.2330829867
 H         -9.3553511537       -0.5294992061       -0.5155666032
 H         -8.1279661729        0.3572217361       -0.9467085037
 O         -9.9501113211        4.0451996024        2.3314968221
 H         -9.7970930952        3.1039567544        2.1691782948
 H         -9.3826801371        4.2939004027        3.0684264305
 O         -8.5479023022       -4.9575006834        2.7486436510
 H         -7.6681799718       -5.3023590392        2.5374008136
 H         -8.4296147992       -4.4968702331        3.5974700547
 O        -10.9960807326        2.3780244274       -0.4007098458
 H        -10.4631507362        1.9961911427        0.3301715552
 H        -11.9124717655        2.2634051956       -0.1494906820
 O          0.4104822707        3.6984775743        5.7331262685
 H          0.5612956702        3.2832127788        6.6112889921
 H         -0.5399937509        3.8425541262        5.6384748286
 O          1.1820389806        2.4002265288        7.9136688910
 H          0.9794390114        1.4689499894        7.7128960516
 H          2.1384241063        2.4887668695        7.8778716578
 O         -9.0033720884       -2.6833524346        1.4975284553
 H         -8.8713201123       -3.5554494887        1.9402282536
 H         -9.1525573673       -2.8758694017        0.5486128689
 O         -3.3135633490       -6.8052510774       -1.4318776997
 H         -3.7125211127       -6.9660558454       -0.5680101822
 H         -2.4886539123       -6.3210063022       -1.2018096743
 O          7.7882047350        3.9635083792       -3.8136708629
 H          6.8629406567        3.8500159681       -4.1402382966
 H          7.7919407295        4.8406618102       -3.4223707627
 O          3.2654628261       -6.4396642508        3.0087742419
 H          2.8253909565       -6.8790966935        2.2532557957
 H          4.1890744543       -6.2992611687        2.7101169887
 O         11.3476356669        2.0004682289       -0.9678493945
 H         11.3842235769        2.5493456785       -0.1660561448
 H         10.4741455876        2.1757739365       -1.3625439935
 O          9.0182634871        0.2731258876       -3.6242060008
 H          9.2941046151        0.8819176295       -2.9295343966
 H          8.9754578610        0.8243412639       -4.4402086911
 O          0.4740785979       -0.1080633335        7.0435701589
 H         -0.2945175352       -0.7009495740        7.1481315930
 H          1.2620640850       -0.6680079752        6.9773231701
 O          3.7127038699        5.4835151625        3.4005402120
 H          3.0463430534        5.8322365520        2.7894096769
 H          3.2842979623        5.5175662055        4.2751926318
 O          0.8834201656       -3.5069248658       -6.3506118656
 H          0.9322327371       -3.4061394588       -5.3730386301
 H          1.7875252371       -3.8071249594       -6.5566917377
 O          5.9468743801        5.3655046602       -2.1916481818
 H          5.0572534379        5.6732962609       -2.3876929546
 H          5.8953435415        4.3897367319       -2.1324762545
 O         -0.7141184889       -6.4282283072        3.1461859552
 H         -0.5734357387       -7.1122762786        2.4687954738
 H         -0.0294958595       -6.5688351588        3.8448261429
 O         -4.3816494358        1.4387302092       -6.4521007664
 H         -4.5964241580        2.2318214479       -5.9195533975
 H         -5.1554172170        0.8620228206       -6.4082680085
 O         -1.4029358069       -6.6512035242       -3.8459725345
 H         -0.5336710647       -6.5729458668       -3.4104606927
 H         -2.0127519929       -7.0507037867       -3.2186089595
 O         -5.5260508391       -1.5641441686       -2.0816521875
 H         -4.7570602207       -2.1636999938       -2.0151900643
 H         -5.2370781638       -0.7538174152       -2.5397506526
 O          0.8672771222       -5.7881723898       -2.5601765988
 H          1.6985238992       -6.2885189723       -2.7029855322
 H          0.9530977545       -4.9348026191       -3.0587083244
 O          3.9602383905        3.6103751627        6.6100791889
 H          3.4521151272        2.9612273049        6.0676295465
 H          3.5059423035        4.4518659895        6.4785980830
 O         -7.2994447192       -4.7045667630       -3.6595771169
 H         -6.3801570467       -4.7880736138       -3.3319498187
 H         -7.8297934094       -5.2097306700       -3.0302376629
 O          6.7241828734       -3.0868245620       -3.3411738309
 H          6.3604506887       -2.7404326366       -2.5154359789
 H          7.6813794937       -2.8899897631       -3.2940515053
 O         -2.7442075007        6.9925864168       -0.6532815524
 H         -2.6094397598        6.3907291166       -1.3982163868
 H         -3.7061363348        7.0415873372       -0.5288131235
 O          9.2494815628       -2.3920276431       -2.8402268839
 H          9.3037670926       -1.5141475078       -3.2439739415
 H          9.3092788374       -2.2260749395       -1.8750989056
 O          7.0289229456       -4.1020508020        3.2994216314
 H          7.1678088307       -3.7204754674        4.1951892822
 H          7.8205844221       -3.8741072307        2.7842734825
 O          7.3837958533       -2.6262110340        5.4839773997
 H          8.1844602387       -2.1409432423        5.2572216663
 H          6.6278169056       -2.0119720720        5.3582265849
 O          4.7170433215       -7.4627536298       -0.2503357451
 H          5.1896304396       -7.1582076688        0.5399513383
 H          3.8053521914       -7.6082066426        0.0549214313
 O         -3.5877038318        2.5335499549        6.9544469580
 H         -2.7528193838        2.2256214149        6.5324135291
 H         -3.3337943366        3.0235465137        7.7346381052
 O          2.8471037796        4.8484999234       -5.1900711399
 H          2.4371026052        3.9810498681       -5.4065496271
 H          3.7830130328        4.7468997835       -5.4024664238
 O         -3.4153685498       -6.3962929458        1.3823770319
 H         -2.6624469010       -6.4752505871        1.9716223784
 H         -3.4932537826       -5.4276080568        1.1813739235
 O         -4.3471300434        5.6308417476        3.5113416132
 H         -5.1361044225        6.0459000202        3.1596610061
 H         -4.6505007579        4.7994646528        3.9398277273
 O         -1.5401730160       -4.7786475928       -5.9328459574
 H         -0.6588997998       -4.5188311125       -6.2480841287
 H         -1.4257227636       -5.6055346407       -5.4477949069
 O          7.1427910381       -1.0671330485       -6.7118141185
 H          8.0201588726       -1.1520994184       -6.3366209241
 H          6.8417672664       -0.1616141554       -6.5161316008
 O          1.2074714955       -3.4497479977       -3.6858950571
 H          2.1364566293       -3.2535590635       -3.4603291510
 H          0.6838513566       -2.7804721263       -3.1904992851
 O          9.5628758510       -1.5483842252        3.9234208147
 H         10.0373238188       -0.7648616136        3.6186097518
 H          9.8088355260       -2.2768487536        3.3357230008
 O          5.5372208073       -1.4726553978       -1.4301019834
 H          5.8652855171       -0.7985097269       -2.0611394928
 H          5.3889932949       -0.9697045892       -0.6013972070
 O          2.4953032221        2.0995690921        5.0054597469
 H          1.6495346805        2.5755994735        5.0338541480
 H          2.9444992387        2.3778119486        4.1683358499
 O          9.3804446395       -3.4747772411        1.8645837407
 H          9.5087127530       -4.3273643419        1.4451900091
 H          9.2630157217       -2.8414749543        1.1216652658
 O          2.8909445481       -1.6148425277        6.6674371881
 H          2.8674102112       -1.2654208800        5.7488185847
 H          3.8187231760       -1.5757374260        6.9055584991
 O          6.8351217702       -3.0516518218        0.4195482824
 H          7.0702994401       -2.4588037723        1.1556646755
 H          6.4499359559       -2.4902896673       -0.2672904228
 O          4.8126899374       -2.6848033094        2.6077612734
 H          4.7103992856       -2.9029616081        1.6680872279
 H          5.6193650867       -3.1697277891        2.8856833380
 O         -0.3448565081        5.9815434812        3.6044743000
 H         -0.8699022158        5.4972283844        4.2660496324
 H         -0.9592669682        6.0587694179        2.8489758406
 O          1.9381912463       -4.0440877940        5.9005862936
 H          2.3179497503       -3.2803751296        6.3698999791
 H          2.2459813302       -3.9465210125        4.9693101123
 O          6.3582304599        0.3403978200       -3.2298299746
 H          6.2193367573        1.1916299875       -2.7533028236
 H          7.3253648754        0.2156206399       -3.3077837477
 O          7.6792956696        6.1251509672       -0.2622718563
 H          7.0744713831        5.9324453071       -1.0066636912
 H          7.0976588533        6.3588926302        0.4735619775
 O          3.4971807306        0.6441945544       -6.9354687710
 H          3.6775873517        0.9588756073       -7.8215074134
 H          2.8967914417       -0.1198347257       -7.0424524690
 O          6.8169011944        3.8704499099        2.5320072017
 H          6.6272777232        3.8423169963        3.4788842207
 H          6.4213104096        4.7048653281        2.1981081066
 O         -7.8057303956        3.1501873127       -0.0117285277
 H         -7.7137036597        2.6474246115       -0.8318391924
 H         -8.5622583337        3.7556425535       -0.1509357368
 O          1.7624014921        2.4821908675       -5.8491579494
 H          2.4537376660        1.8286178640       -6.0445177500
 H          1.2747189944        2.1787233890       -5.0475311990
 O         -2.1392225484        3.0794185956       -7.1942550371
 H         -2.9679432209        2.5869564073       -7.1778803874
 H         -1.4645652110        2.4583563164       -7.5123265706
 O         -1.8761394608       -1.5103265227        6.7511066222
 H         -2.2648541441       -1.0926177242        5.9634784532
 H         -1.3931244648       -2.2857858892        6.3928868601
 O         -9.5769080819       -3.2354297787       -1.0536206143
 H         -8.9915128646       -2.7778318695       -1.6997900781
 H         -9.3445921669       -4.1777165811       -1.1365329748
 O        -10.9145901785       -1.0557590633        2.2566116707
 H        -11.2270179513       -1.3170116419        3.1220217295
 H        -10.1779821500       -1.6866226978        2.0283658152
 O         -9.5950698447        1.2436407514        1.6724489897
 H         -9.0077977734        0.7531133190        1.0434636214
 H        -10.1677883573        0.5347595855        2.0215235000
 O         -5.8391047867       -5.4800312218        2.3632368639
 H         -5.0483239021       -6.0031609540        2.1497218757
 H         -5.5508337451       -4.7982332054        2.9842160497
 O        -10.9664970381        0.7096531448       -2.6541833392
 H        -11.1733269440       -0.0327114448       -2.0684925690
 H        -10.8811541667        1.4688139831       -2.0584961848
 O         -7.9497293361       -2.2262629175       -2.8903291412
 H         -7.7840349543       -3.0972699888       -3.3086756992
 H         -7.0677304216       -1.9564451795       -2.5515290681
 O          0.3015116019        5.9702191460       -5.3224205391
 H         -0.1986303442        5.1275769341       -5.2866405224
 H          1.2215318498        5.7268817169       -5.4943883157
 O         -7.5674276039       -0.7212106083        2.6896078059
 H         -8.0036810283       -1.4775837950        2.2684484249
 H         -7.5835253019       -0.8906689038        3.6398393509
 O         -3.9326145580       -0.2510291676        0.2397655054
 H         -3.9733545680       -1.0958433706        0.6947576187
 H         -4.7225608645        0.2366135170        0.5063388544
 O         -1.2151569348       -0.0648989956        0.0227470902
 H         -1.1501027380        0.7943974890       -0.4210639146
 H         -2.1326835500       -0.1403620886        0.3068108798
 O        -11.6629874011       -2.6075131278       -3.2071113853
 H        -11.6574618809       -1.6492139997       -3.2451511266
 H        -10.9528991803       -2.8836630078       -2.6195632216
