  189
       -320.69792782
 O          2.1170005953       -0.6312628755        0.3731802795
 H          1.5583970489       -1.3082290811        0.8135081457
 H          2.0788876685       -0.8646588607       -0.5684821384
 O          0.4949876239       -2.5511978065        1.1389915184
 H          0.9266345472       -3.2966891844        0.6829736514
 H          0.5153818243       -2.7897992965        2.0934637922
 O          3.6919794255        0.4985193760       -1.4831424190
 H          3.1449399231        0.5117559308       -2.2763121203
 H          4.3895955004        1.1659176543       -1.6305312812
 O          0.8843982730       -2.1981846514       -4.9356963394
 H          0.3840606696       -1.3680572690       -4.9699872959
 H          0.8942542082       -2.5386980952       -5.8306169516
 O         -0.1041681803        3.4203341147        0.8876900143
 H          0.0609013056        3.9186460084        1.6919245526
 H          0.7278926080        2.9501087920        0.6890497110
 O         -3.6515207835        3.9185287413       -0.6682388944
 H         -3.3559883858        3.6753053105        0.2318425746
 H         -4.6147673722        3.8813453278       -0.6239575071
 O         -2.9898455682        3.3878052613        1.9478183339
 H         -3.7712664777        3.1033244190        2.4535392964
 H         -2.7962230076        4.3394511464        2.1074390556
 O          2.6744037159        3.1532348669        3.1369952850
 H          2.4945606458        2.8148896916        2.2338832457
 H          1.9622233820        3.7789435939        3.3267815437
 O          2.3130130858       -4.3620216502        0.3417795966
 H          3.0442591672       -3.9094380270        0.7882252607
 H          2.5503349262       -4.4206263495       -0.5941987238
 O          3.0331590970       -2.0709434020        4.1394308413
 H          2.9376942008       -1.0995258105        4.1630439642
 H          3.4941357822       -2.3308648503        4.9376069701
 O          2.8567961257        0.5787912911        3.7867258553
 H          2.8266851725        1.5503791299        3.8787685966
 H          3.4277259676        0.4382000505        2.9958181400
 O         -2.7980617036        0.6482026483        5.0486820737
 H         -2.8340268467        0.3914283984        5.9699108756
 H         -2.4362789698       -0.1355072698        4.5676253651
 O          0.2850851630        4.6078619600        3.5561196679
 H         -0.2594181138        3.8200036668        3.7778902156
 H          0.3113113458        5.1590321784        4.3390552417
 O          0.5305663764        1.6769492521       -1.7363494405
 H          1.1145598441        2.4604894416       -1.6510635666
 H          1.0079117848        1.0942319861       -2.3540980340
 O         -2.1854449873       -2.3558299375        1.3926074912
 H         -1.2674383583       -2.5318413417        1.1166669810
 H         -2.5890736692       -3.2401385348        1.5638170489
 O          1.6389509601       -1.6361769787       -2.1395343225
 H          1.8093811475       -1.0992946988       -2.9260713870
 H          1.9782347654       -2.5209333009       -2.3231123438
 O          0.3571164448        0.4231860534        2.8358337366
 H         -0.0969840462        1.2357602464        3.1409732004
 H          1.2748101102        0.4498453559        3.1773119557
 O         -0.8454332067        2.7560960452       -3.8510502296
 H         -1.8138619003        2.8820127873       -3.7621623005
 H         -0.5235316999        2.4041466509       -3.0000844809
 O         -2.5289041182       -4.0371259579       -3.7943450155
 H         -2.5273883567       -3.0766432680       -3.9413399560
 H         -1.6041808432       -4.3005952568       -3.7346700557
 O          0.3217662811       -4.2226758416       -3.1986755622
 H          0.4683946793       -3.4600461201       -3.7925224213
 H          1.1855621636       -4.6134470700       -3.0517343579
 O         -0.9317669930       -1.7002976515       -1.4277463002
 H         -0.0210806993       -1.6813080864       -1.7824235754
 H         -1.0423735984       -2.6244316230       -1.0963641861
 O         -4.0685781138       -1.9257670092       -0.4780024151
 H         -4.1074992910       -0.9730423569       -0.6383305305
 H         -3.3663064145       -2.0333992317        0.2021666940
 O          7.1432222118       -1.6016430973       -0.8847426507
 H          7.1841977926       -1.6360874352        0.0824482735
 H          6.2126617024       -1.8040170706       -1.1011411627
 O         -1.0179631630       -4.2494271151       -0.7627010825
 H         -1.9800335775       -4.4362146940       -0.9189194923
 H         -0.5611137965       -4.4772962734       -1.5848668058
 O         -1.1597754796       -6.1305763494        1.2976547442
 H         -0.3778808746       -6.1445047692        1.8807763520
 H         -0.9131655053       -5.5842144652        0.5349826598
 O         -4.5385221168       -2.8291805514        3.4322532657
 H         -5.3530074913       -2.7594223196        2.9209573743
 H         -4.0873221947       -3.6054178291        3.0744152216
 O         -5.9645275436        2.6180935527       -0.2049984974
 H         -6.4286410042        2.4318157906        0.6253140704
 H         -6.4173895454        2.1106313534       -0.8999674325
 O         -4.7653858242        1.8821727310        3.3550777477
 H         -4.4944895877        1.0283876759        2.9055600468
 H         -4.4368863805        1.7610372349        4.2519265818
 O          3.2113177445       -3.9585182753       -2.2807656067
 H          3.7985015774       -4.4914496146       -2.8170547040
 H          3.7680606069       -3.2432641832       -1.8849600083
 O         -4.5677146031        0.3934298364       -3.3072379625
 H         -5.5012483376        0.2787131922       -3.4938130051
 H         -4.5097612383        0.4977923381       -2.3359894261
 O         -0.4390935042        0.2819018497       -4.8858324281
 H         -0.6572871090        1.2242196840       -4.7292137395
 H         -1.1972526847       -0.2241535631       -4.5241477195
 O          4.4745020332       -1.9845169122       -1.0306608136
 H          4.1723977665       -1.0598640419       -1.2167497843
 H          4.2490865367       -2.1584248497       -0.1027502230
 O          5.5358718945        2.3202317849       -2.1461012033
 H          5.3265092270        2.4264439051       -3.0805963750
 H          6.3986176180        1.8790396983       -2.0418502441
 O          4.1539382910       -2.7049016140        1.6581105111
 H          3.6807413615       -2.5187736083        2.4892628232
 H          5.0929353041       -2.6153053439        1.8510779054
 O         -3.5768395081       -4.4692358049       -1.3349914229
 H         -3.9016846394       -3.5738382121       -1.1456266858
 H         -3.4024290005       -4.4805227522       -2.2963590815
 O          6.7193880238       -1.2720917048        1.8794749446
 H          7.0436039235       -0.3403485849        1.7075364602
 H          7.2974020899       -1.6113874634        2.5636403622
 O          2.2256136339        2.1534623558        0.6535561268
 H          2.2922861352        1.2183599374        0.4023067352
 H          2.9264878202        2.6452194762        0.1752211448
 O         -3.3361845794       -4.7152054214        1.6754474581
 H         -3.7715582872       -4.8782939171        0.8319845400
 H         -2.5695485139       -5.3410535652        1.6865456948
 O         -6.1595306471       -1.8633433853        1.2009833186
 H         -5.5342225662       -2.0849861452        0.4814002987
 H         -6.8820089473       -1.3586524091        0.8070404489
 O         -8.1261133889       -0.0041785779        0.4909342420
 H         -7.7987853847        0.6421055151        1.1453624393
 H         -8.9907131326       -0.2895586085        0.7899221363
 O         -3.4599517714        2.9822577852       -3.3926018506
 H         -3.6483525149        3.3441703141       -2.5167331316
 H         -3.9179719572        2.1308422160       -3.4748183982
 O          4.1919072457        3.7503743590       -0.2498974113
 H          4.6966152962        3.6027492265        0.5718372181
 H          4.7352513440        3.3655662711       -0.9554315657
 O          4.3155478765        0.1992805173        1.6094727731
 H          3.6033618402       -0.1703458935        1.0420553272
 H          5.0442609302       -0.4328966331        1.6356618399
 O         -1.2695295980        5.3032170127       -0.6391813419
 H         -2.1552472654        4.9777793478       -0.8572955885
 H         -0.8189058160        4.5585159084       -0.1876086787
 O         -1.9439881074        5.8198187124        2.0292781430
 H         -1.0998914672        5.6943273922        2.4782047697
 H         -1.7338003915        5.9105110923        1.0812762169
 O         -2.3269292878       -1.2534030745       -3.7090673955
 H         -3.1564459932       -0.7607788772       -3.6036532210
 H         -1.9412547721       -1.4055257840       -2.8198955197
 O         -7.1727880053        1.9291721681        2.2069228450
 H         -6.3224126000        1.8798507163        2.7036227145
 H         -7.7372308612        2.5322849399        2.6919289370
 O         -4.1680494616       -0.4040429898        2.3018363155
 H         -4.9463599612       -0.7359535800        1.8141548367
 H         -4.0119833061       -1.1263947888        2.9382484384
 O          1.1703234271       -5.6669195491        2.6061439288
 H          0.9272639076       -4.8916668554        3.1294835538
 H          1.6356894774       -5.3454477736        1.8227114182
 O          3.4870619618        2.7297001491       -4.1121891801
 H          3.0350824473        3.1437735169       -3.3344318852
 H          3.3227545871        3.3146906790       -4.8524101412
 O          1.9743652076        0.5245940259       -3.7437165959
 H          1.1661590903        0.4678107016       -4.2955211171
 H          2.5048951195        1.2718943288       -4.0833825714
 O          2.1512349909        3.7498193871       -2.0544764358
 H          2.7172100684        4.1792900416       -1.4036038330
 H          1.4806799464        4.4112468281       -2.3897537789
 O          7.7221958726        0.9022805987       -1.4281008011
 H          7.5074914126       -0.0618290892       -1.3025145426
 H          8.6183978570        0.9356609804       -1.7638032723
 O         -7.1938383713        0.8717383749       -1.9581005479
 H         -7.9506960806        1.1541559919       -2.4736313158
 H         -7.5426816854        0.3985485561       -1.1832220666
 O          5.2516959819        2.7094159804        1.9979866049
 H          4.6806391798        3.0894555288        2.6759936730
 H          4.8686240912        1.8318449554        1.7990695718
 O          7.5053711117        1.1586732202        1.3372579139
 H          6.8946877636        1.8538222529        1.6218858619
 H          7.5915162318        1.2381161203        0.3712388784
 O          0.2024782224        5.1807015802       -2.9561767018
 H         -0.3650629848        5.3877809890       -2.1887981410
 H         -0.2539036017        4.4852234365       -3.4625675904
 O          0.5186118233       -3.1510298046        3.7146820921
 H         -0.2355936852       -2.6019981761        4.0046012588
 H          1.3386790001       -2.7425949239        4.0302519015
 O         -1.4740316163       -1.3031463199        3.7662440982
 H         -0.7880663453       -0.6950071617        3.4226098057
 H         -1.9010863679       -1.6796694748        2.9644119277
 O         -1.2158023680        2.4089914980        3.7226140938
 H         -1.7705856825        1.8664356502        4.3157494468
 H         -1.8188459248        2.6983802097        3.0004802254
 O         -4.0021976949        0.7643156489       -0.7626509687
 H         -3.0563891543        0.7973966854       -0.4486530022
 H         -4.4424792240        1.5175367506       -0.3493292899
 O          4.7176731085       -0.5190775844       -4.1835450895
 H          4.8430945681       -0.8734049701       -3.3006927940
 H          3.7888978595       -0.2717445704       -4.2544795414
 O         -1.5350470694        0.6328576406        0.0267672286
 H         -0.8285875908        1.2614604986       -0.1491960051
 H         -1.2331756086       -0.2238460252       -0.3111376965
