  189
       -320.70010347
 O         -1.5751123085       -0.1718503396        5.4366840384
 H         -1.9869637630        0.4289075103        6.0582354626
 H         -0.6113669260       -0.2337442232        5.7205411887
 O         -2.5173977599       -1.2772661379       -3.8316011871
 H         -2.3144097444       -0.3223852600       -3.7362003193
 H         -2.1321413650       -1.6810798873       -3.0339097959
 O          0.6365041776       -1.1169462207       -3.0215731354
 H          0.2540663626       -0.9831391023       -3.9039937162
 H          0.3576339530       -0.3695576922       -2.4807767927
 O         -4.4020130578        4.9885737898       -0.5261870339
 H         -3.6141520662        4.8928355046       -1.0758132095
 H         -5.1442546410        4.6572381307       -1.0669803404
 O         -4.5519827930        1.7472097826        3.4417940161
 H         -5.3567427962        1.2100147335        3.4090844764
 H         -4.5624573397        2.2908085080        2.6297443833
 O          1.9437625548        1.9360122468        4.8533391839
 H          2.4782997720        2.6254697149        5.2451072796
 H          2.4521350563        1.5724061374        4.0766011966
 O          2.2129464392       -5.6406910984        0.4346508511
 H          1.2623724612       -5.8092257101        0.4234896668
 H          2.4828055237       -5.4965480849       -0.4850903408
 O          2.3464828365       -2.9137500075       -4.1843036148
 H          2.4702704354       -3.6844376330       -3.6128371965
 H          1.6816650711       -2.3634759308       -3.7404391264
 O         -0.6117060364       -5.1675865863        0.4409216910
 H         -1.4296869479       -5.1511468944       -0.0914077877
 H         -0.8739085152       -4.8565618626        1.3144721687
 O          0.7451223947       -4.3773614256        3.6771695379
 H          0.9762411481       -5.3069988678        3.6652990056
 H         -0.1947642308       -4.3090927261        3.4334202635
 O         -4.5887994380       -1.8863524764        2.2099322176
 H         -3.9583191674       -1.8250589971        2.9466827856
 H         -4.1932291184       -1.4349212087        1.4365701328
 O         -4.0085711868       -0.5086791636       -0.0845355087
 H         -4.8477323663       -0.0158732256        0.0582687369
 H         -4.1724654317       -1.0783282203       -0.8727947757
 O         -4.8777087163       -4.3839792151       -2.6264430314
 H         -4.9441944514       -3.4115754883       -2.5633843380
 H         -5.7689412259       -4.7312598155       -2.5999860817
 O          0.4888560911        5.4364930343       -0.1645481020
 H          1.2180500387        5.4951091272        0.4621933207
 H         -0.3059962897        5.2711443932        0.3686935223
 O          3.6659889944        3.6611741944       -3.5402600472
 H          2.9016725485        4.0467719789       -3.9934004713
 H          3.6272077994        3.9723300833       -2.6233013407
 O         -1.6453782954       -2.0335453160       -1.3557154755
 H         -0.7639390980       -2.4037328507       -1.5336898291
 H         -1.6367772404       -1.7884705082       -0.4123255429
 O         -1.6789147909        1.2078910876       -3.3421516266
 H         -2.5269795159        1.6010065497       -3.0665629126
 H         -1.1542436403        1.1051877384       -2.5184855632
 O         -1.8505113234        4.7671655004        1.2176448720
 H         -2.5599634784        5.4130212666        1.2167538193
 H         -1.9160967404        4.2777951049        2.0718074861
 O          0.8841197614       -0.2194274434        6.1925366931
 H          1.3709256654       -0.9527651113        5.7632482797
 H          1.2874123139        0.5927654977        5.8413726037
 O         -4.0005433255       -4.5335166636        1.5811849698
 H         -4.4592189655       -3.6905569585        1.7261911770
 H         -3.7013918926       -4.5364739656        0.6477263092
 O         -2.0278624379        3.5906982403       -1.2014924463
 H         -1.9070959059        3.9044683080       -0.2845980938
 H         -1.1272306325        3.4990573773       -1.5577616630
 O          4.2089144786       -1.1059464548       -3.6055909310
 H          3.6438003794       -1.8003896782       -4.0131581050
 H          3.6686619873       -0.2938051157       -3.6367411867
 O         -2.0632517378        1.2533473251        0.5633691562
 H         -1.8342252663        1.0919725898        1.4941701092
 H         -2.6597045808        0.5185178136        0.3227740606
 O         -1.8049742774       -3.9619449119        2.8040098838
 H         -2.1412167018       -3.4317969883        3.5515808151
 H         -2.6395400575       -4.3348699670        2.3906887831
 O         -4.2628512896        2.8463060040        1.0137275895
 H         -3.3812162762        2.4741038857        0.8183728003
 H         -4.3138333506        3.7166950834        0.5498500273
 O          3.1134604201        1.0525546990        2.6993858415
 H          3.8519967187        1.6550734293        2.4747659876
 H          3.4652348533        0.1436709950        2.7427363611
 O          1.0231981895        2.6027141545        0.9462687654
 H          1.5118099355        3.4022265542        1.1990648473
 H          1.6540738415        2.0490726485        0.4686909016
 O          6.6262825401       -0.1367360306       -3.1776810198
 H          7.1831975138       -0.3049624241       -3.9389940666
 H          5.7529234162       -0.5468923646       -3.3748745680
 O          2.0454867653       -2.0470636439        4.6026265408
 H          1.6336661917       -1.5983072304        3.8328996033
 H          1.6726954725       -2.9353302292        4.6047727662
 O          3.9633104836       -1.5567309997        2.6240289233
 H          3.2955916202       -2.1360486691        2.1858621673
 H          3.8640297745       -1.7644462473        3.5605757135
 O          6.9953821750        1.8403498320        0.3282044356
 H          7.2421984946        0.9187732375        0.1654347595
 H          6.8805987278        2.2368068571       -0.5422784691
 O          2.7048933116        4.7492178409        1.4063124196
 H          3.3034733249        4.6257364965        2.1468618714
 H          3.2369637429        4.6193264449        0.6053049466
 O         -0.0975255965        1.5971446401        3.0882366623
 H          0.3015797263        2.0024653778        2.2777732948
 H          0.5007298746        1.8300083685        3.8170306693
 O          4.9723193672        2.7889476602        1.8470779811
 H          5.8299090758        2.4010216704        1.6040557445
 H          4.6580766947        3.1701981774        1.0118284198
 O          0.8085314466       -0.8511179756        2.5226023088
 H          0.5269168756        0.0509465597        2.7880840267
 H          0.0086066028       -1.2877787067        2.1734463810
 O         -2.8631626376       -4.4098642593       -0.8542718069
 H         -3.5344929683       -4.6136728735       -1.5305157648
 H         -2.5179066844       -3.5253372810       -1.0968449669
 O         -6.1132770632        1.0961726845        0.3068321924
 H         -5.4978791644        1.8274382681        0.5580348113
 H         -6.4656618649        0.7463385237        1.1419398601
 O         -2.9891784348       -2.2757137636        4.5520659795
 H         -3.4695674374       -2.6531253587        5.2888589698
 H         -2.4441805717       -1.5401680242        4.9097976349
 O         -6.6072414652        0.2897457613       -2.3440500624
 H         -6.5964976821        0.5639913696       -1.4147216930
 H         -6.6624413980        1.0930367495       -2.8668851969
 O          2.6873380471        1.1601055059       -3.5200566096
 H          3.1263021816        2.0279884440       -3.6429096273
 H          1.8556525955        1.2018955349       -4.0316590576
 O          5.5649618568       -2.3240598585        0.4759029119
 H          6.2914137228       -1.7177830673        0.2736877157
 H          5.1991685045       -2.0606947835        1.3335528814
 O          6.0201716926        2.4526047654       -2.3316176752
 H          5.5984228066        2.8934498111       -3.0767224082
 H          6.2555738641        1.5616298499       -2.6400136076
 O         -0.1013901558        0.9275857760       -1.1708691676
 H          0.3376425901        1.7911783144       -1.3049213491
 H         -0.7683773454        1.0906555086       -0.4619580799
 O          0.6670029387       -3.3801760024       -1.0780086839
 H          1.3876862245       -3.8399079421       -1.5239676513
 H          0.2571333634       -4.0291253670       -0.4650834652
 O         -0.4384351562       -1.1192610138       -5.5592735684
 H         -0.1594507197       -1.9118987538       -6.0187729309
 H         -1.3121277641       -1.3073746288       -5.1576348162
 O          0.4113958235        1.4808156427       -4.9840182579
 H          0.2929564578        0.7114722382       -5.5557989890
 H         -0.3949347555        1.4939709862       -4.4288745693
 O          2.8605581740       -4.8316098657       -2.1747767767
 H          3.6946559874       -4.2942809666       -2.0318892519
 H          3.1382333460       -5.6304890870       -2.6252022305
 O         -1.4312559517       -1.7519606827        1.3415791809
 H         -1.9457249709       -1.1042821763        1.8584414269
 H         -1.5617258538       -2.6167225122        1.7841101432
 O         -6.4998359006       -0.1035616819        2.7336559271
 H         -7.2900167711       -0.4953674492        3.1045220850
 H         -5.8579020056       -0.8393788252        2.5769305038
 O         -2.5209573534        0.1119611767        2.9217638708
 H         -1.9879832138        0.1139873406        3.7339706098
 H         -3.3078191016        0.6627375471        3.1277807773
 O          4.1095542987        3.6437030732       -0.7081094642
 H          4.9510494358        3.3870388035       -1.1156051681
 H          3.5498969594        2.8370428021       -0.7614782934
 O          4.9700145636       -3.3427328434       -1.9523918510
 H          4.8214897872       -2.5237698513       -2.4439758532
 H          5.2215295998       -3.0887101645       -1.0454984216
 O         -2.0959072308        3.3722006206        3.4642148450
 H         -2.9214016813        2.9440520902        3.7079136801
 H         -1.4149520287        2.6727167761        3.3928205076
 O          2.1299449634       -3.2069527167        1.5759491438
 H          1.6352505318       -3.4773864631        2.3650187771
 H          2.3648104512       -4.0521522456        1.1462413549
 O         -6.1235650465        3.3007325304       -1.8017544618
 H         -5.3451596506        2.7222094566       -1.9315780606
 H         -6.6438971403        2.9073688611       -1.0969501514
 O         -4.7540638084       -1.6686256874       -2.3475656601
 H         -4.0771265869       -1.5084962880       -3.0352701516
 H         -5.4866704270       -1.0442127313       -2.5104081742
 O         -3.8449856677        1.8233108227       -1.9062182197
 H         -3.8414579158        1.0593588866       -1.3150887684
 H         -3.2224391691        2.4877130631       -1.5278590514
 O          0.6322244618        3.4107894559       -1.8758047913
 H          0.8132565352        3.7575143832       -2.7600870716
 H          0.7005082229        4.1635699990       -1.2424392028
 O          1.1274643749        4.0771247437       -4.5485815277
 H          0.8892928764        3.1892948155       -4.8753150697
 H          0.6611232217        4.7125102164       -5.0922998342
 O          7.5208579854       -0.7066379768       -0.6481229857
 H          8.3947246120       -1.0966024549       -0.6932856834
 H          7.2243575178       -0.5525969491       -1.5658487184
 O          2.7409683612        1.4389492238       -0.8130181530
 H          2.5717540480        1.3290744447       -1.7635923062
 H          2.6642583823        0.5109832845       -0.4777240741
 O          2.2668591910       -1.0453559701       -0.1939045184
 H          1.7084885155       -1.5946919203       -0.7548158063
 H          1.9343049498       -1.1686036530        0.7032793319
 O          7.3361260000        4.7108681600        0.3632301662
 H          7.5153205055        3.7884316553        0.5779841147
 H          6.3817319025        4.7911721162        0.3082083850
