  189
       -320.69840554
 O         -2.7743766569        1.8728102312        3.9601008625
 H         -2.2663583906        1.1369987934        3.5469822230
 H         -2.0854705044        2.4458819248        4.3256501852
 O          2.8451555253       -2.5033051419       -2.4637836093
 H          2.6026504928       -1.5611953171       -2.4377473758
 H          2.1893864381       -2.9630836765       -3.0099511288
 O         -7.5073988672        3.2611960082        0.0560738797
 H         -6.6486915663        3.5483967825       -0.3217693332
 H         -8.1716402357        3.8716358889       -0.2641851768
 O          5.3371724534       -3.3934314274        1.1343363003
 H          6.1846758010       -3.4941685505        0.6967215660
 H          4.6946992838       -3.9103030960        0.6246809056
 O         -0.2464688928        2.8758571188        4.4287742272
 H          0.2588797636        2.1149704099        4.0480403943
 H          0.1794972338        3.0955526265        5.2573001668
 O         -1.5315213757       -0.0777651967        2.6893670653
 H         -1.0050424961       -0.7438817919        3.1695955490
 H         -2.3432054426       -0.5304260001        2.3731742005
 O          4.0759004157       -1.3714563646        3.2657597762
 H          3.6246881942       -2.0660054472        2.7465481562
 H          5.0249773099       -1.4647255595        3.0744729186
 O          2.8536490468        3.3564106994        1.5973990686
 H          2.7600161134        3.4885276027        0.6299731557
 H          3.0930226600        2.4148348746        1.7262694883
 O         -4.4229813417        1.0939207738       -0.0191337337
 H         -5.3905986089        0.9301866216        0.0458413988
 H         -4.2041571173        1.7996095680        0.6325301882
 O          3.8505798058        0.8894227995        1.7639232421
 H          3.7526382727        0.2240364609        2.4691919264
 H          4.7964500370        1.1607996856        1.7848938884
 O         -1.1629225667        5.7206043157       -1.2369586609
 H         -0.2661831229        5.8610462455       -0.8105737941
 H         -1.5707114939        6.5875645142       -1.2445249696
 O          2.4108534963       -3.0296293411        1.9436356504
 H          1.8881963917       -3.6998276348        2.4085314702
 H          2.6989958964       -3.4313411500        1.0850146962
 O         -1.2985282211       -2.4429202489        0.7070904697
 H         -2.1574620437       -2.0437512395        0.9467887878
 H         -0.5996525967       -1.9304106055        1.1590781536
 O          6.7440822875       -1.2493063418        2.4834609948
 H          7.4024688503       -1.7235329120        2.9905715381
 H          6.9198430392       -1.4649067542        1.5366043865
 O         -4.3394950794       -0.5612396644        4.0669855976
 H         -3.9609360103        0.2970223308        4.2897257060
 H         -5.1952451582       -0.3868348072        3.6536624354
 O          1.2301677600        0.9098397585        3.4414136889
 H          1.0436494086        0.2832750392        2.7199863082
 H          1.5693711617        0.3636631451        4.1621851966
 O         -1.6058685387       -4.3056587242       -3.9688447184
 H         -2.0283746614       -5.0180365325       -4.4478620829
 H         -2.1340997452       -3.4940371831       -4.1298336637
 O         -0.5407977117       -2.8782198982       -1.8001990457
 H         -1.1416135759       -3.4413316956       -2.3031117895
 H         -0.9446346602       -2.7245710728       -0.9194395873
 O         -3.7382656686        2.9528045941        1.7598703905
 H         -2.9077409540        3.3135994221        1.3831429398
 H         -3.4514573021        2.5657956718        2.6261960163
 O          7.4238770316       -1.5621291560       -0.0910313756
 H          7.6610246398       -0.6534278359       -0.3191800729
 H          6.8805351565       -1.8625296509       -0.8362018151
 O         -5.4604639082       -0.8338436794       -3.6684224822
 H         -5.1772336889        0.0701478933       -3.4594279808
 H         -4.6628766621       -1.2979260851       -3.9626828162
 O          0.4788101864        4.3567086580        2.2596075735
 H          0.1781711512        3.9971981046        3.1128822452
 H          1.3662780739        3.9581356403        2.1076604759
 O          4.2047405248       -1.1489512415        0.0420406912
 H          4.1797454086       -0.3206278185        0.5549089971
 H          4.5872428923       -1.8402213791        0.6115256018
 O          2.2956088470        0.2055217358       -2.5995387466
 H          2.6865858165        0.2539235787       -3.4950075598
 H          2.8943700938        0.7174826335       -2.0374630430
 O          6.1849262406        3.6618362869       -0.7621826250
 H          6.3355887460        4.5021599535       -1.1941304812
 H          5.9719865440        3.8689181858        0.1876379455
 O         -6.8389230954        0.1176571374        2.8552125207
 H         -7.5278012684       -0.0036468662        3.5101389630
 H         -6.6432581742        1.0948277548        2.8432094646
 O         -1.0259729840       -5.0531761869        1.0520596853
 H         -1.1454980770       -4.0834362519        0.9131609950
 H         -1.9249819777       -5.3805241326        1.1544671554
 O         -4.4598827927        1.5844526105       -2.7126475108
 H         -4.5415911753        1.6034806426       -1.7403047603
 H         -4.7476620880        2.4432296472       -3.0275569917
 O         -2.8800753541       -2.8499489766        3.4318667255
 H         -3.4664912455       -2.1335926812        3.7236620273
 H         -2.0132775613       -2.6577513875        3.8064413766
 O         -3.6818814889       -4.1570331691        1.1910984911
 H         -3.3365942377       -3.7162875320        1.9953026432
 H         -4.6363948133       -4.1173843932        1.2952725945
 O         -0.1840667511       -2.0759321180        3.9699579492
 H          0.0911228623       -2.9534455366        3.6538888010
 H          0.5741804205       -1.7275629152        4.4623348174
 O          1.1447098092       -4.1107632275       -3.9629840926
 H          1.4288250574       -4.9282286945       -3.5471824957
 H          0.1724086773       -4.1580466088       -4.0012666484
 O          6.4523171157        1.3552901637        1.7520677072
 H          6.7033476341        0.5198230131        2.1817591693
 H          6.7503524513        1.2793132724        0.8302108370
 O          0.8000154912       -5.1837912859       -1.0830772682
 H          0.4660439632       -4.3331240090       -1.4223341416
 H          0.2187298099       -5.4042900362       -0.3417454080
 O         -0.2113625456       -0.6589967365       -3.3128833425
 H         -0.3114098922       -1.4510616160       -2.7433817124
 H          0.6067439022       -0.2305270705       -3.0105564057
 O          0.5378837919       -4.6185170758        3.1477613806
 H          0.5382090633       -5.3558861040        3.7574677898
 H         -0.0488358610       -4.8681334723        2.3928876977
 O         -3.0952078799        4.1672361322       -2.5618664800
 H         -2.4294658453        4.7743983568       -2.2139879732
 H         -2.6198120091        3.4556146024       -3.0069711916
 O          3.1272908185       -4.1209684818       -0.3360651293
 H          3.1282274748       -3.4379644964       -1.0395046474
 H          2.3712828866       -4.6992892468       -0.5698704492
 O         -3.5471338534       -2.6742594431       -1.1177057645
 H         -3.4957293460       -3.2903937664       -0.3593666133
 H         -4.4676686105       -2.3506243892       -1.1176950863
 O         -6.0672369068       -1.6273330557       -1.2110448501
 H         -6.5131510537       -0.8356210924       -0.8791563317
 H         -5.9779319027       -1.4636687492       -2.1787250558
 O         -1.7603544171        1.6529958972       -3.3783987692
 H         -1.2679728383        0.8153903973       -3.4147549400
 H         -2.6779240240        1.4169798217       -3.1608826781
 O         -0.0789225179        3.1312161851       -1.8993314739
 H         -0.6348629423        2.5698786602       -2.4749975321
 H         -0.3478086234        4.0399911081       -2.0562318869
 O          4.2677632569        1.8823070442       -1.5928012367
 H          4.9323804371        2.4713401329       -1.1948221331
 H          4.7665279183        1.3946224016       -2.2847968424
 O         -5.8946290494       -2.3753927500        1.4659616785
 H         -6.1399414546       -2.2747115957        0.5335085080
 H         -6.4175378139       -1.7451981741        1.9701091879
 O         -3.5380726681       -1.0787752652        1.2979222531
 H         -3.8719694890       -0.3064534896        0.8043290878
 H         -4.3142871549       -1.6325234145        1.5099807845
 O         -6.4186144952        2.6834567068        2.5472781586
 H         -6.9204238246        2.9943047748        1.7766597165
 H         -5.4973055286        2.9311758594        2.3872516348
 O          7.2470856203        1.1376061533       -0.9495742674
 H          7.1439288330        2.1032658288       -0.9506922652
 H          6.8805311769        0.8491050116       -1.7945921131
 O         -7.0282706642        0.5918900670        0.1463449617
 H         -7.4148172929        1.4754407280        0.0250563474
 H         -7.1476047817        0.3554460702        1.0813166295
 O          2.4142939221        3.7435898253       -1.0274778238
 H          3.0792346476        3.1318133415       -1.3920887682
 H          1.5564073506        3.4510718343       -1.3792981108
 O         -2.3501561540       -0.2689397903       -1.3041860060
 H         -3.1286002791        0.2689682122       -1.1178693907
 H         -2.6275671252       -1.1861599037       -1.1096746839
 O         -1.4485476311        3.6698890543        0.6316987552
 H         -1.4354073363        4.3263781519       -0.0825438728
 H         -0.7316634882        3.9488349685        1.2592667049
 O          1.1042972311        5.9608781797        0.0072119565
 H          0.9611354768        5.6550456058        0.9136523442
 H          1.7546996531        5.3554619763       -0.3807782386
 O         -2.9235323308       -2.0042008171       -3.7180526015
 H         -2.2372143023       -1.3333992640       -3.6231967884
 H         -3.1612783024       -2.2842929729       -2.8139418750
 O         -5.0272093288        3.9014687639       -0.6737051185
 H         -4.3728065912        4.0589216024       -1.3794793598
 H         -4.5450919906        3.9137390497        0.1589136351
 O          2.1729324929       -1.0801246164        5.1276453027
 H          2.9283236623       -1.2292245730        4.5194054039
 H          2.5040823631       -1.2037628373        6.0169058143
 O          5.5053275887       -1.9276982797       -2.0784803521
 H          4.9832871674       -1.5500232682       -1.3261654953
 H          4.8607191156       -2.4749076535       -2.5425073896
 O          1.3613046070       -1.6791526703       -5.3751272611
 H          0.6759500088       -1.3067245663       -4.7929138883
 H          1.4440424459       -2.6074366987       -5.1247693998
 O          5.5242355625        4.0253145572        1.7490611679
 H          4.5567928581        3.9103277784        1.8124707433
 H          5.9250173986        3.2140182059        2.0866537261
 O          3.3569831335        0.0444319161       -5.0862954595
 H          3.2627104064        0.6713641428       -5.8041249183
 H          2.7174515111       -0.6841005295       -5.2804623175
 O          5.6187963249        0.3939417203       -3.3559817690
 H          5.6541950142       -0.5078378365       -2.9591855232
 H          5.0420047290        0.3038099753       -4.1246968046
 O          0.7737094679       -0.9312934896        1.4598550349
 H          1.5326242459       -1.5229689663        1.3621772740
 H          0.6913277905       -0.3605348093        0.6633146353
 O          1.6547260942        2.6576652290       -4.1294732074
 H          1.2222988103        3.3762790273       -3.6630601526
 H          1.5878847184        1.9022920435       -3.5307747598
 O          0.1313009479        0.6598809414       -0.5592841889
 H         -0.0304378987        1.5522365183       -0.2431563616
 H         -0.7444835997        0.3087252660       -0.7993999352
