  459
       -779.16257647
 O         -3.7641802438        5.8956142452        5.3277658332
 H         -2.8667581446        5.7786819055        4.9437041766
 H         -3.6758482881        6.5355976339        6.0328306380
 O         -0.7024404639        2.6405711336        4.2570973505
 H         -1.2329900594        2.3146409653        5.0125916561
 H         -0.9972840968        2.0720186932        3.5083823032
 O          1.6013683182        0.8101196943        3.0200605673
 H          2.1305845626        0.0059156417        2.8517256870
 H          0.8039981238        0.4678889296        3.4909963356
 O          2.2698828020       -3.7452500975        2.3859592165
 H          2.2843879477       -4.7241056479        2.2532786214
 H          1.3248144110       -3.5414906413        2.5726884272
 O         -2.4793239070        3.9543894269       -1.4508799402
 H         -2.7215326858        4.7800475031       -0.9672232550
 H         -2.6215675166        4.1537265768       -2.3972180218
 O         -1.5572353465       -3.3417874980       -4.7114578172
 H         -2.4221323103       -3.4936558437       -5.1222687012
 H         -1.1016653799       -2.6769649424       -5.2742572945
 O         -0.3286299874       -1.9173351233       -2.6992660034
 H          0.4145588135       -1.5984357137       -3.2420850234
 H         -0.7528769164       -2.6235833207       -3.2016796253
 O          2.2909553022       -1.1869951610        6.2545007894
 H          1.3922324842       -1.1599570419        6.5969535144
 H          2.4111298244       -2.0539630442        5.8287847951
 O          6.1272907181        5.0593970641        2.2669871882
 H          6.3421565864        4.5176932262        3.0487017180
 H          5.6951071542        5.8444317534        2.6166617610
 O          0.1227161373       -4.7449087714       -1.4724241428
 H          0.7988881190       -4.1376930343       -1.8241059819
 H          0.5761120696       -5.5891596419       -1.3422043830
 O          1.3738918937        5.3546566745        4.8101218715
 H          1.3405652916        4.9119072611        3.9376056094
 H          1.4699166814        4.6266146886        5.4512888205
 O         -1.6467564985        1.1862153666        2.2667864144
 H         -2.6250630569        1.2545000000        2.2850583871
 H         -1.4774866262        0.2230033338        2.1786102239
 O          5.0493990606        5.3276540285       -1.6266726579
 H          4.4895141137        6.0822097684       -1.8249953794
 H          4.6136123101        4.8716125105       -0.8706269876
 O          2.7611706180        3.1506318436       -5.7590761392
 H          3.6488466604        3.0331225109       -6.1210418265
 H          2.8115063196        3.9300837207       -5.1869236272
 O         -0.1027974578       -3.0977152330        3.4162588395
 H         -0.6477237056       -2.4212561433        2.9782319896
 H         -0.5770684074       -3.9412152003        3.3371430281
 O         -3.7082029879       -1.4518007741        0.3691018947
 H         -4.1291955470       -2.2972989431        0.1348014212
 H         -4.3741517701       -0.7585947945        0.2157547223
 O         -3.1598145650       -0.2206497791       -6.4259342980
 H         -3.2233801066       -0.5269606525       -5.4830689290
 H         -4.0032206241       -0.4472162432       -6.8204896068
 O          1.8653262524       -1.2241294184       -4.0291810297
 H          2.4005552301       -1.6757311096       -4.7098895210
 H          2.1967366382       -0.3118623402       -3.9684152783
 O         -0.1686912533        5.8651430370        1.8894879495
 H         -0.3257491490        4.9269799718        1.6789304574
 H         -0.6427231035        6.0034328506        2.7226211995
 O          8.6616769344       -2.2220588243       -2.0724267049
 H          8.3807915984       -3.0050898267       -2.5593226094
 H          7.8772537773       -1.6688873270       -1.9417282215
 O         -7.7391694916       -5.0386800189        0.0990520329
 H         -6.9634836781       -5.6147229009        0.1911003757
 H         -7.8796684090       -4.6295872621        0.9594956654
 O          7.1893064788        4.3539890296       -0.2881510595
 H          6.9713799704        4.6168272503        0.6177848070
 H          6.6756017316        4.9361557968       -0.8668049507
 O         -0.2217692140        6.0523546060       -0.8252179644
 H         -0.2480318307        6.2356557878        0.1294708897
 H         -1.1081203031        6.2486485397       -1.1385200439
 O          1.5016120016        3.6991139974        2.6116772284
 H          0.9090240210        3.0180186370        2.9470444092
 H          2.4068171170        3.4686633744        2.9042950748
 O         -3.1328887600        1.7031780751       -0.1298582359
 H         -2.6444197946        1.0143688325       -0.6007356658
 H         -3.0626772926        2.5112904601       -0.6617881925
 O         -2.3620082989       -3.5732372187       -1.5686900822
 H         -1.5452586808       -4.0901948800       -1.6584458004
 H         -3.0305559866       -3.9480304431       -2.1547710294
 O          1.8556660668       -6.7802194734       -0.6940284762
 H          1.8370288793       -7.7107532310       -0.9113715684
 H          2.7783221935       -6.4606831898       -0.8599359002
 O          3.4544110995       -0.6050808947       -1.7816551006
 H          3.8975555683       -0.5985782361       -0.9042664242
 H          3.9746682645        0.0133592134       -2.3507007461
 O          3.1537709402        1.8487283186        0.9917562071
 H          3.4852044380        2.7730368392        0.9242581835
 H          2.6302987758        1.7464780179        1.7980283574
 O         -1.4966859889       -5.4673853288        3.8475921422
 H         -2.1638311706       -5.8132992362        3.2292401090
 H         -2.0034071162       -4.9764036055        4.5448751807
 O         -4.1653571074       -3.3803086691       -5.6312371085
 H         -4.7067491628       -2.5429319539       -5.6186711187
 H         -4.4772667116       -3.8908004595       -6.3773145331
 O         -9.3394642536        2.8250847622        3.0211366701
 H         -8.7659616904        3.2601512283        2.3545894930
 H        -10.2189237111        3.1595887373        2.8402280456
 O          1.6229155632        0.3043378127       -6.7055486953
 H          0.9312015541       -0.3326719817       -6.4448420448
 H          1.5477604056        0.4231998726       -7.6509666238
 O          4.2843961139       -5.7730402259       -0.9500256084
 H          4.0054838226       -4.8881038868       -0.6112672521
 H          4.4546118721       -5.6373741817       -1.9117954515
 O          5.8189573407       -3.5555019133        2.5674527817
 H          5.9485603224       -3.1087176635        1.7099205688
 H          5.5151239320       -4.4670616471        2.3552166466
 O         -3.8348912634        3.3023474787        4.4306503208
 H         -3.5004771122        3.7161137237        3.6040700520
 H         -4.0376204946        4.0542717520        4.9992527825
 O          3.1596817882        1.0548983861        5.1733949957
 H          2.9339907567        0.2484865108        5.6901027030
 H          2.6146158885        0.9662665645        4.3584260394
 O          9.5563341897       -0.5334773035       -4.0090594693
 H          9.5418845841       -1.2367646317       -3.3366012589
 H          9.9681207739        0.2184899344       -3.5689611862
 O          9.3978922465        2.8837154978        0.2004282256
 H          8.7044772857        3.4663851773       -0.1515768817
 H          9.3745028762        3.0216493617        1.1585945880
 O         -2.5132186941       -3.9617614849        1.0550824978
 H         -1.5571247309       -4.1773818335        1.2051984315
 H         -2.5729229440       -3.7449181259        0.0988100205
 O          3.2322396476       -1.2756412484        2.8009776323
 H          2.8839760561       -2.1741932007        2.6939951042
 H          3.8980456963       -1.3378452171        3.5248801556
 O          8.3643943762        0.4094910223        0.5760987759
 H          9.1404260500       -0.1504175366        0.3602177535
 H          8.6724065687        1.3301190645        0.4599767273
 O         -3.3174124020        4.4739140921        2.0473129391
 H         -2.4400608654        4.1232013456        1.7752270941
 H         -3.9664870112        4.0015898881        1.4698732056
 O          8.2840582438       -3.6117827324        3.5296712306
 H          8.5332876800       -4.5213056695        3.6886725823
 H          7.3744161736       -3.6243253302        3.1436007540
 O         -5.2406224615       -4.8714183283        3.6663392226
 H         -4.6745238047       -4.0700399797        3.5043768596
 H         -5.1768563489       -5.0546442658        4.6044927493
 O         -0.2686798722       -0.3098066242        4.4452599780
 H         -1.2235130932       -0.3849752559        4.3433501841
 H         -0.1077769960       -0.0974628030        5.3840082271
 O         -3.7312272405       -2.8027655502        3.1184181044
 H         -4.4044738860       -2.1548052672        2.7972872567
 H         -3.2389568136       -3.1135366010        2.3267210676
 O         -5.0897354698        5.2449008039       -3.4686793336
 H         -4.1553949042        5.2493525533       -3.7233281195
 H         -5.5551683570        4.7834921365       -4.1854767516
 O         -5.1894900049        3.2424551145        0.7125510763
 H         -6.0750926693        3.5509969320        0.9833413587
 H         -5.1981852803        3.2050449186       -0.2727804554
 O          2.4447494569        6.6079502965       -1.3737149979
 H          2.6342683341        6.6420928237       -0.4251724095
 H          1.4776437835        6.5596264269       -1.4109164560
 O          0.0302009802        0.6491203067        6.9657172232
 H         -0.8715449765        0.9580846738        7.0988475727
 H          0.5843324115        1.4448908477        6.9283163477
 O          5.0094400795       -5.9649957006        1.8035677724
 H          5.0103714703       -6.0586311546        0.8433821318
 H          4.1063822443       -6.1937471031        2.0770025577
 O         -7.1160145199        0.9672175660       -2.4118322373
 H         -7.8917717981        0.3769444565       -2.3696574137
 H         -6.5755969397        0.8608719465       -1.6058433622
 O         -1.5430538080       -1.4030130398        1.8608263467
 H         -2.4219354588       -1.4046927717        1.4327167322
 H         -0.9576296415       -1.7597139301        1.1651813804
 O          3.2745640443        2.9024028899       -1.8584042367
 H          2.6780759035        3.2848638402       -1.1850468516
 H          4.1089572638        2.6382708108       -1.4176576948
 O          2.7694231814        4.9163400524       -3.5690873609
 H          3.0856614236        4.1763577589       -3.0074993821
 H          2.7192909585        5.6728519736       -2.9676000176
 O          2.2066104310        1.4088855460       -3.7713103795
 H          2.6234894619        1.9221705940       -3.0503492457
 H          2.3814313952        1.9231026747       -4.5832905121
 O          4.0802727959        4.2872596483        0.6587115630
 H          3.4044534258        4.9599613430        0.9015073523
 H          4.8412623126        4.4439068345        1.2493343072
 O          6.7029314859       -0.3293858761       -1.2940084479
 H          6.0160529366        0.3580833705       -1.2580597637
 H          7.3437643672       -0.0496180988       -0.5913815049
 O         -5.2319711543       -1.5434083863       -2.3397600645
 H         -6.0676631450       -1.6590288732       -2.8309090763
 H         -5.3661609609       -0.8349820850       -1.6967598147
 O          3.5427978849       -3.3938025916       -0.0301510385
 H          3.1138706424       -3.4662619718        0.8400730547
 H          4.4226446055       -2.9619087151        0.0766823021
 O         -0.6071630792       -1.1651346333       -5.9581358503
 H         -0.5643898521       -0.5626199603       -5.1770789339
 H         -1.4110715914       -0.8860397769       -6.4213530667
 O          3.8537252097        5.8854269083        3.7632885257
 H          3.0894549539        5.9957873241        4.3508602750
 H          3.9927025552        4.9204586168        3.7179121718
 O          2.3194046224       -6.3512531526        1.9978540794
 H          1.6243936649       -6.8038228007        2.5226803588
 H          2.0648709258       -6.4786071275        1.0656421168
 O         -3.1578976662        1.5962116655       -3.1362711170
 H         -2.7471626278        1.7789827642       -3.9963660662
 H         -2.8055296998        0.7486076710       -2.8061007315
 O         -0.3867198004        2.4327371252       -2.1179603177
 H         -1.1973379839        2.8865400355       -1.8358686072
 H         -0.6363025242        1.7736956245       -2.7969267649
 O         -3.1834066527       -1.1001723150       -3.9537168207
 H         -3.9614370142       -1.2589676906       -3.3768900801
 H         -2.6551824124       -1.9035209306       -3.9164743963
 O         -3.0871291844       -0.4804364407        4.4850575074
 H         -4.0036230558       -0.1880478194        4.6117322424
 H         -3.1362566570       -1.2873695655        3.9532115841
 O         -2.4503467568        1.6579697773        6.0539572999
 H         -2.5933544666        0.7868221909        5.6526068638
 H         -3.0436047962        2.2591038983        5.5652723226
 O          9.9661713743       -1.8152229665        2.2202318550
 H          9.4242153606       -2.5185076764        2.6072488122
 H          9.7284614512       -1.0062821281        2.7014461714
 O         -0.3259118917       -2.7839472925        6.1048710494
 H          0.1541824340       -3.5709747996        6.3754556690
 H         -0.1233750341       -2.6644466312        5.1539942924
 O          5.4545062270        2.6242575214       -6.1040889987
 H          6.3296074303        2.2244191267       -6.2270294066
 H          5.5105391366        3.0291482576       -5.2173500989
 O         -5.4872728275        0.7045343226        5.3151646716
 H         -5.8765727143        1.4349786013        4.7987610722
 H         -5.1263676401        1.0953964638        6.1117792795
 O         -2.1205733399       -0.3616156289       -1.5254015220
 H         -2.6660131232       -0.9721491099       -0.9957775760
 H         -1.5390091867       -0.9211032397       -2.0736247190
 O         -5.1316729560       -3.5371428209       -0.4232227841
 H         -5.0115109517       -3.3345234438       -1.3614891289
 H         -5.1641288650       -4.5112854583       -0.3157325242
 O         -7.5181573828       -3.6384998072        2.6929678395
 H         -6.7591693584       -4.1608401111        3.0116915200
 H         -7.7259311778       -3.0133958138        3.3984243090
 O         -9.1271546471        0.0306981214        2.8166333617
 H         -9.3641343852        0.9192435865        3.1230419550
 H         -8.6481016500       -0.4330285927        3.5313956319
 O         -1.2990219495        5.3118760902        4.3587267894
 H         -1.2137230107        4.3404792460        4.2577412021
 H         -0.4512922944        5.5772345711        4.7578835391
 O          8.4178686624        2.7006558153        2.7201507158
 H          8.6758655887        1.8151045775        3.0482500054
 H          8.1301832463        3.1964825619        3.4968524946
 O         -5.2482922866       -6.1830438526       -0.0581175093
 H         -4.8348207957       -6.5671809154       -0.8646686973
 H         -4.6609108840       -6.4007818754        0.6846204714
 O         -1.2359704855       -7.2255483750       -2.1306212259
 H         -0.8662661314       -6.5909510815       -2.7954056520
 H         -1.1026922484       -8.0956164193       -2.5069517192
 O          6.9657943364       -4.6867769545       -1.1258363185
 H          6.2579648232       -5.3382917406       -1.0663701210
 H          7.1624952189       -4.5736707476       -2.0676504384
 O         -2.7265327563       -3.8575662105        5.5152573605
 H         -1.9481754506       -3.3937681847        5.8960110993
 H         -3.0863602962       -3.2600234917        4.8467924515
 O         -1.0792787125        3.4445904171        1.0733724855
 H         -1.2647776428        3.5007672815        0.1309333158
 H         -1.2512047959        2.5202264988        1.3552369833
 O          2.1971460437       -3.2827230006       -2.3218201398
 H          2.2094821390       -2.3944765115       -2.7222000199
 H          2.7374182016       -3.2563506180       -1.5113535325
 O         -6.6320548536        2.7356535599        3.8724952184
 H         -6.2654551548        3.6310270874        3.7230415687
 H         -7.5866180016        2.8429757559        3.9524142028
 O          1.3668042390        3.7802913710       -0.2251971507
 H          0.8458248482        4.5284670103       -0.5434756872
 H          1.3571392256        3.8197573014        0.7431926983
 O          6.6698764543        3.6351576185        4.5843885750
 H          6.3750700858        2.6942533719        4.6399501506
 H          6.5210795465        4.0202952039        5.4468213609
 O          6.5572910122       -0.4323684876        2.4115405927
 H          5.9800517357       -0.8034788359        1.7270981757
 H          7.4099071225       -0.2733335183        1.9736748007
 O          2.8384474638       -3.6094468081        5.0664517801
 H          2.2282026629       -4.2683964294        5.4269982356
 H          2.7213287051       -3.6778592359        4.1006695849
 O         -2.5197835551        4.5718914990       -4.0698641836
 H         -1.5641223286        4.7422836043       -4.1125906259
 H         -2.6959935956        3.8510458989       -4.6937408555
 O         10.3918780311       -1.0834324312       -0.3062832820
 H         10.4713069253       -1.4984665759        0.5740269289
 H          9.9151480221       -1.7150010196       -0.8678924470
 O          4.2499997227        0.1855453528       -5.9178899373
 H          3.3095067454        0.2852243609       -6.1509847308
 H          4.6804472517        1.0220513385       -6.1763051946
 O         -9.3739828225       -0.5222134176       -2.5218406075
 H         -9.6038675257       -0.7756964688       -1.6165203268
 H         -9.8768404238        0.2998733990       -2.7127135661
 O          2.5171442348        6.2674207649        1.4348696339
 H          1.5739981704        6.1501030694        1.6530521336
 H          2.9894259692        6.3286590058        2.2888100871
 O          7.7827516101        1.7287430355       -2.9151781670
 H          7.2832934350        0.9602348580       -2.5913139894
 H          8.6843445293        1.6294961604       -2.5571330476
 O          7.3831153880       -4.0403473920       -3.8351137753
 H          6.6393354717       -4.6126062573       -4.0615352226
 H          7.2297713299       -3.1995763610       -4.2934011927
 O          5.6810608884        3.4000845939       -3.5049481403
 H          6.5589046472        3.0797983714       -3.2460886500
 H          5.4459843486        4.1358214069       -2.9133627594
 O          4.9784449916        0.7491390910       -3.3651374616
 H          4.7158033614        0.5067366843       -4.2712751663
 H          5.0991053150        1.7117941618       -3.3527512356
 O          0.1859415578        4.3618600378       -3.8966774651
 H          0.0987570963        3.7086379784       -3.1702248281
 H          1.1076189407        4.6874315271       -3.8357939109
 O          0.0048071338        2.7760208132       -6.0125020579
 H          0.0822659045        3.4672705798       -5.3124586834
 H          0.9115924162        2.6340074719       -6.3120898128
 O        -10.2890847339        1.9952108021       -2.5782026963
 H         -9.6933815820        2.5718248034       -3.0787024102
 H         -9.9240564727        2.0271555936       -1.6790278070
 O          4.9554952523       -2.4139919887       -3.0902306496
 H          5.7137052296       -1.8882755323       -3.3989060301
 H          4.3963986547       -1.8151417731       -2.5541220862
 O          5.8750028623        1.1002196257        4.7007542792
 H          6.1704618175        0.3986276630        4.1046721322
 H          4.9826117091        0.8638674800        4.9959839488
 O          0.2048099827       -7.5193471726        3.1192109035
 H         -0.2056955521       -7.8108071257        2.2957609769
 H         -0.3772267156       -6.8172730253        3.4514397395
 O         -9.0363845643        1.8234166837       -0.1332868942
 H         -9.2550785556        0.8748955101       -0.0243241387
 H         -8.2105400250        1.9380454652        0.3667938177
 O         -5.2124883796        2.9997879448       -1.9074393457
 H         -4.4677254418        2.5183661523       -2.2963519043
 H         -5.2524185969        3.8555200261       -2.3669869056
 O         -5.4533293627        0.4590866342       -0.3570048105
 H         -4.6741580127        1.0680601323       -0.3276445921
 H         -6.0376038326        0.7310887777        0.3785329691
 O          3.6952295915       -2.5132573363       -5.4736751825
 H          4.2150771362       -2.5510859223       -4.6401085926
 H          4.0623435406       -1.7651357997       -5.9586952053
 O          5.8932029186        2.1011159416        1.9374495413
 H          6.0021319333        1.1506648460        2.1677155796
 H          6.7849101065        2.4702085658        2.0936084291
 O         -5.7128203035        6.0415919731       -0.8876613283
 H         -6.6626414899        5.9208198983       -0.7765570056
 H         -5.5555947548        5.9324279429       -1.8363696421
 O          3.9763661221        3.1454030978        3.4895289018
 H          4.6907828921        2.7821798021        2.9153274214
 H          3.9328099322        2.5627299178        4.2562869463
 O          2.2909851771       -4.8023633808       -4.4973560677
 H          2.5409798226       -4.1787251414       -5.1885249432
 H          2.2109628599       -4.2613568507       -3.6807193795
 O          4.7884293717       -5.0817441527       -3.4441772135
 H          3.9651500372       -5.2003509213       -3.9511796817
 H          4.8329961247       -4.1253728154       -3.2413043198
 O         -3.1039402535        6.1441642728       -0.1353608784
 H         -4.0368694731        6.2720979124       -0.3781301629
 H         -3.1182850303        5.8294706676        0.7836557802
 O         -5.7055256001        5.2843654581        3.3621269783
 H         -4.9570860461        5.1802758274        2.7583291285
 H         -5.3208012934        5.7025934005        4.1430508457
 O         -0.3731315527        0.8326187255       -4.2233625372
 H         -0.3923907689        1.4933532905       -4.9500409840
 H          0.5743421602        0.8216930134       -3.9870520541
 O         10.2440909786        1.2315547774       -1.8600387920
 H         10.4503350926        0.4234534059       -1.3620422532
 H         10.2455987464        1.9418257233       -1.2035347188
 O         -7.2616049309       -4.5570613526       -2.4783952660
 H         -7.6604682204       -5.3515952401       -2.8338261129
 H         -7.4456737690       -4.5878972634       -1.5111262261
 O          6.9692022502       -1.3274907838       -4.5283266876
 H          7.8794652182       -1.0178528142       -4.3620525887
 H          6.5947261181       -0.6657066494       -5.1199031696
 O         -9.3756902328       -0.8236923100        0.2128405777
 H         -9.6478587149       -0.7486540351        1.1368361395
 H         -8.4904680955       -1.2430224138        0.2508105238
 O         -7.0632061128        1.2284671939        1.6033144412
 H         -6.7865451293        1.8030732081        2.3368594342
 H         -7.7724571446        0.6581115926        1.9625635425
 O          7.7463688742       -1.4193918253        5.1352904100
 H          6.7778357410       -1.4252885702        5.0777590314
 H          8.0367416223       -2.2277599662        4.6825080054
 O         -1.1714543256       -7.2815768024        0.6646705409
 H         -2.0722556073       -7.1465306360        0.9814907337
 H         -1.1976776457       -7.2527648031       -0.3062377369
 O         -0.0801099286       -4.8502026813        1.2366833134
 H         -0.3229694717       -5.7812063587        1.0914303603
 H          0.1741734712       -4.5062168932        0.3629197467
 O         -4.3072877936        1.4078421346        2.4628109319
 H         -4.3811548967        1.9271203019        3.2735590010
 H         -4.5889544368        1.9889622542        1.7258198350
 O         -5.4570378997        1.0520650399       -4.4489904631
 H         -6.1199295247        0.9838605199       -3.7234389383
 H         -4.5992823424        1.1774911142       -3.9913721301
 O          5.5826030100        2.1147710081       -0.7144045569
 H          5.5802622065        2.0725804315        0.2651293680
 H          6.2465695365        2.7932969753       -0.9008248449
 O         -2.6518027515        2.3424836833       -5.7209793827
 H         -1.7856654014        2.5332134444       -6.1069984655
 H         -2.9253495485        1.4783963009       -6.0858831564
 O          7.6993424641        1.2044363060       -5.5808216174
 H          7.7428715706        1.4405360880       -4.6290904891
 H          8.5610419674        0.8447260717       -5.7959379756
 O          1.3928987142        2.8996746492        6.0006536570
 H          0.7164088762        2.7348622427        5.3186043709
 H          2.1356318801        2.2950158728        5.8003538557
 O         -3.9555125756       -6.8928949574       -2.2528091132
 H         -4.1040286401       -6.0526925783       -2.7190243716
 H         -2.9908469040       -7.0006990228       -2.1830566440
 O        -10.6415729207        3.9328487968        0.2888774244
 H        -10.0967785430        3.1203405751        0.2187258486
 H        -11.3953911210        3.7974481142       -0.2861714291
 O         -7.4997943263       -2.1101007656       -3.6742514672
 H         -8.2638781864       -1.5899971090       -3.3727741925
 H         -7.5865977738       -2.9970279273       -3.2877882209
 O          5.0574623003       -1.9371159791        4.5798876643
 H          5.3950089940       -2.5453785070        3.8900036355
 H          4.5034580385       -2.4754088462        5.1579876118
 O          9.1620999787        0.3371298483        3.8124037945
 H          8.5285661649       -0.2463594533        4.3145057399
 H          9.8974018750        0.4884024516        4.4061818573
 O         -7.9948494046        3.4620152091       -2.9732275525
 H         -7.4996686864        3.6854748302       -3.7711711243
 H         -7.5738524081        2.6430037231       -2.6374585565
 O          6.0243992787       -2.5414725584        0.0950667824
 H          6.4807847251       -3.2873059086       -0.3545414484
 H          6.2059946454       -1.7329133226       -0.4266405277
 O         -8.3915947395        5.0775428956       -0.8411188022
 H         -9.3182062871        4.9237023328       -0.5917798225
 H         -8.2246271096        4.5088828454       -1.6245476918
 O          0.8122360595       -5.4319007727        5.5759982823
 H          1.0817569147       -6.3501754071        5.6161945617
 H          0.0727873613       -5.3955819425        4.9531512212
 O         -7.5570281903        4.1915544405        1.4839058694
 H         -7.8718185111        4.5449455925        0.6137809161
 H         -7.2524231807        4.9387892527        2.0085193667
 O         -4.5716756072       -4.3888729111       -3.1390119888
 H         -5.5305559094       -4.4323060096       -2.9770423365
 H         -4.4519423039       -4.0271586108       -4.0351693322
 O         -6.2542663721        3.4839624081       -5.1952655323
 H         -6.3802257455        3.5087656388       -6.1422235985
 H         -5.9108468014        2.5819796281       -4.9758076229
 O         -0.3174113364       -5.7619555920       -4.1466884847
 H         -0.7825660470       -4.9330232212       -4.3430822930
 H          0.6226010324       -5.5775262652       -4.3028180531
 O         -7.3651070684       -1.2680092096        4.4012410510
 H         -6.6411092017       -1.1572157381        3.7389461924
 H         -7.0377642534       -0.7990548031        5.1734766166
 O         -5.7797452341       -1.3177343288       -5.6658553069
 H         -5.5987428784       -0.4391864412       -5.2633856256
 H         -6.5219040819       -1.6616343501       -5.1455598267
 O         -3.4788142324       -6.1667205656        2.0161611982
 H         -3.1805086430       -5.3167513245        1.5879373190
 H         -4.1927231715       -5.9050636299        2.6244340184
 O          4.4563266402       -0.4125046431        0.6431803346
 H          4.1916394080        0.5210995997        0.7343158577
 H          3.9830917633       -0.8573569022        1.3746424004
 O         -7.0001981482       -1.9835195087        0.6331475717
 H         -7.3072866850       -2.5860530951        1.3396332387
 H         -6.3913999559       -2.5355616726        0.0979436313
 O         -5.4911629564       -0.9689763558        2.5589230316
 H         -5.0849153387       -0.0781039986        2.4825499778
 H         -6.0065021661       -1.1518252488        1.7440126588
 O          0.1989428251       -2.0839932204        0.0153090250
 H         -0.0764529944       -2.1810975326       -0.9075808257
 H          0.5987139451       -1.1918390615        0.0096699076
 O          1.0608996460        0.4072652144       -0.4928355978
 H          1.8958942194        0.2734019649       -0.9563299115
 H          0.7215693532        1.2586311065       -0.7860736652
 O         -8.6245980933        1.2123557085       -5.2783339878
 H         -7.7139934318        1.1672368424       -4.9782496169
 H         -9.1421755038        0.6633839611       -4.6872542265
