  147
       -244.15619332
 H          0.5809314358       -0.3859934653       -1.6374774388
 C          0.1762230309       -0.4147476830       -0.6237724144
 H         -0.5168146909       -1.2535624329       -0.5546339826
 C         -0.5356930503        0.8996323902       -0.3324948843
 H         -1.2808600923        1.0932872401       -1.0991945423
 H          0.1864004007        1.7166447725       -0.3069552641
 O          1.1881567333       -0.6770956167        0.3135348132
 H          1.7683209922        0.1067402358        0.4085569521
 N         -1.1937217838        0.8076217133        0.9814124318
 H         -1.5366143547        1.7401858441        1.2946154854
 H         -0.4755320955        0.4867997673        1.6928775984
 H         -1.9873465510        0.1410671244        0.9008907060
 O          1.2621908356       -4.1805654853        0.0656985438
 H          0.3525218139       -4.5124017892       -0.0013726134
 H          1.3023049826       -3.6726780661        0.8978875919
 O          4.3024575114       -0.1683075693        2.3664047642
 H          3.8585432281       -0.5139224407        3.1691208191
 H          3.6448242654        0.3810199619        1.8875493179
 O          6.5025792030       -2.1259429813       -0.5101751190
 H          6.5898452848       -1.2055409287       -0.2141185270
 H          5.7621679020       -2.4814500595        0.0046706619
 O         -3.0254526175       -0.0638404936        3.1730385236
 H         -3.4931327800        0.6450446188        2.6751570336
 H         -3.6628361363       -0.7935039757        3.2511906160
 O         -0.7356034068        0.5391020687       -4.0536901705
 H          0.0444746346        0.0310422339       -4.3210827151
 H         -0.3908334175        1.3921562852       -3.7354536112
 O         -2.2688936028        3.3731421417       -2.1105613933
 H         -1.3625143687        3.1596890450       -2.3995694749
 H         -2.1542091883        4.0834661805       -1.4588509612
 O          6.1877870274       -2.7114408402       -3.0596631828
 H          6.9969186707       -3.1388681601       -3.3407741221
 H          6.3194614884       -2.4669156658       -2.1068437781
 O          1.3392422969       -2.5294939690        2.2224164235
 H          0.4514789607       -2.4986610998        2.6236113266
 H          1.3474030075       -1.7747510502        1.5988197902
 O          6.4536253075        0.3379769126        0.8087707873
 H          5.7365883357        0.1295053311        1.4418500255
 H          7.2368956485        0.5102859164        1.3323420987
 O          0.2643024562        2.8301691713       -2.9410190197
 H          0.7085714693        3.6091085332       -3.2808229455
 H          0.9638593616        2.3087152819       -2.4942887925
 O         -1.7386548761        1.0216918126        5.2557328786
 H         -2.3646669927        1.2086103414        5.9551897315
 H         -2.2480636491        0.6374690415        4.5051629670
 O         -6.6603735506        1.7959681044       -0.7746488410
 H         -7.4745717763        2.0386572500       -1.2161021900
 H         -6.8480824651        1.7665689805        0.1856795390
 O         -4.6834695460       -0.5754653941       -3.4752238550
 H         -5.0463688171       -0.9206170067       -4.2912565673
 H         -4.3184768750        0.3183719830       -3.6861754637
 O         -2.8212102211       -3.3003795665        1.3218236680
 H         -2.9112387353       -2.4790692480        0.7862991734
 H         -2.3757210993       -3.9452012143        0.7408567881
 O          4.1758565217       -2.4006508513        0.9227881228
 H          4.2578043752       -1.6428834800        1.5474902924
 H          3.4667869470       -2.9552133121        1.2554066994
 O         -6.9618925461        1.3378022025        1.8775755411
 H         -6.8883559552        0.3413686806        1.8287590350
 H         -7.7031916809        1.5273538935        2.4528706648
 O         -0.9691246157       -3.5207304008       -2.6407044084
 H         -1.4463891612       -2.6708565610       -2.6331224168
 H         -0.0213694938       -3.2993765017       -2.6146519228
 O         -3.3498042380        1.6301783954       -4.1028712076
 H         -2.4900068483        1.2626015403       -4.3502947023
 H         -3.1588567150        2.3642578487       -3.5051231382
 O         -1.4284641472        4.9763543240       -0.0593059024
 H         -0.5236070002        4.5641003651       -0.1147093837
 H         -1.2981965858        5.9213312216        0.0200222420
 O          3.8347579614       -4.1134175303       -3.0860861220
 H          4.0296121495       -4.9169188150       -2.6023676781
 H          4.6642345004       -3.5985322839       -3.1240120238
 O          2.8964157107       -1.4695783843        4.2069495306
 H          2.3945399604       -1.9879500339        3.5491035935
 H          2.2498975818       -1.2005656465        4.8667373497
 O         -2.2063662914       -1.1031918432       -2.4837171190
 H         -3.0976019433       -1.0651715959       -2.8760526637
 H         -1.6565528623       -0.4981947760       -3.0217637319
 O         -2.0121583118        3.2493649886        1.9375472855
 H         -1.9214958723        3.9385958946        1.2521790672
 H         -2.9545646057        3.0270746317        2.0196660613
 O          0.8915702866        3.7812489880       -0.0668064621
 H          1.3101226063        3.8234458401        0.8037928808
 H          1.6115469004        3.8872387969       -0.7284374269
 O          2.8081502992        1.4329320735        0.8049515782
 H          2.5134054849        2.1449703772        1.3893401689
 H          3.5586970134        1.7870242318        0.2717336824
 O          0.2640162315       -0.9163688032        5.1288995249
 H         -0.3855638394       -0.2585284341        5.4198642647
 H         -0.2382394509       -1.6486796272        4.7480347294
 O         -6.6632397404       -1.2400519533        1.6283795153
 H         -5.9653097091       -1.6361867210        2.1770449575
 H         -6.3690434375       -1.3287236811        0.7088458471
 O          1.6742890524       -2.8355016872       -2.1682672866
 H          2.3911994202       -3.3506480357       -2.5961920925
 H          1.5335263397       -3.2973206343       -1.3014620461
 O         -3.0774045696       -0.9675981627        0.0713489849
 H         -2.6861636279       -1.0050037265       -0.8239017596
 H         -4.0223043459       -0.7829778521       -0.1046933861
 O         -0.1681394829        2.8603884787        3.8936846135
 H         -0.6394778971        2.3423155798        4.5663737524
 H         -0.8486149796        3.1228582968        3.2474617896
 O          3.4511988789       -0.9844317433       -1.2618953109
 H          3.8360671608       -1.4151213334       -0.4767398138
 H          2.7244875505       -1.5839735320       -1.5232472206
 O          2.9171677354        3.8844211514       -1.8135691139
 H          3.7543437574        3.9851413905       -1.3532141243
 H          2.9420664262        2.9751966518       -2.1632625038
 O         -1.2013083626       -2.1739921156        3.1332319935
 H         -1.7180374578       -2.7549651574        2.5387380034
 H         -1.6733369277       -1.3283690300        3.1117276254
 O          1.7492855708       -0.7495507669       -4.0667581396
 H          2.6835810903       -0.8050341887       -4.3268380926
 H          1.6007068397       -1.5250744670       -3.5042691920
 O         -4.2755179151        1.8432206014        1.8103094035
 H         -5.2356616283        1.7756013960        1.9324618746
 H         -4.1171563637        1.7167049560        0.8420598042
 O          2.0513140795        3.5764239688        2.4611844395
 H          1.3192221434        3.3870271980        3.0735150885
 H          2.7340339555        4.0183431844        2.9668726883
 O          4.9550301605        2.2796280921       -0.5014353048
 H          5.5919089101        1.6624607711       -0.1070348375
 H          4.9962794165        2.1199856014       -1.4644403283
 O          4.4722360115       -0.6718670142       -3.6921666513
 H          5.1803062172       -1.3221667745       -3.7942187198
 H          4.1728190210       -0.7967327559       -2.7608638745
 O         -4.5931784575       -2.3397890665        3.0974176022
 H         -4.8175012476       -2.9612029323        3.7908643515
 H         -4.0285298948       -2.8231623209        2.4590719082
 O         -1.3992644511       -4.8115783488       -0.4171397611
 H         -1.2951305742       -4.3359115531       -1.2908618062
 H         -1.6151162702       -5.7188093646       -0.6329265964
 O         -3.8454618244        1.6550440592       -0.7864640612
 H         -3.2679029072        2.2876004274       -1.2563810306
 H         -4.7424214792        1.8280781880       -1.0930022498
 O          0.6824281194        0.4823262520        2.8333921545
 H          0.6609805059       -0.1295251837        3.5922112088
 H          0.5678126827        1.3684855453        3.2133920811
 O         -5.6004463328       -0.7546722669       -0.8671118410
 H         -5.9974885452        0.1332106614       -0.8524164795
 H         -5.3441913315       -0.8891880700       -1.7930909783
 O          5.0242929901        1.9161246521       -3.1898037286
 H          5.7249629213        2.2276477607       -3.7613887007
 H          4.8271117004        0.9921213381       -3.4553437055
 O          2.2908521954        1.2579972327       -2.2729699743
 H          2.1717847394        0.6770674042       -3.0454777110
 H          2.7692841402        0.7081473319       -1.6298343425
