  129
       -218.89510486
 O         -1.3374722495        1.3796764459       -1.3765659915
 H         -1.8564193856        1.0010203178       -0.6407442653
 H         -0.4128872695        1.3974455220       -1.0756283152
 O          1.6444582262       -2.9127197183       -2.7955117376
 H          2.1289235585       -2.2216296405       -3.2898993795
 H          2.3522878219       -3.4688695393       -2.4213329136
 O         -3.4669418348        3.1178678443        1.0145972102
 H         -3.8507913445        3.1132660967        0.0991855960
 H         -2.6312175507        3.6023867763        0.9525066529
 O         -0.9316560929        0.5515004929       -3.9517025162
 H         -0.9181152832       -0.4241156365       -3.9054769046
 H         -1.1931781974        0.8518786807       -3.0620256935
 O          3.1009132278       -0.9631983617       -4.0131960884
 H          2.5297460653       -0.2171615020       -4.2680871393
 H          3.7937411466       -0.5942106627       -3.4528314453
 O         -0.9187503056       -2.1213566228       -3.4685607580
 H         -0.0507330822       -2.5502006751       -3.4538186303
 H         -1.1165948626       -1.9151586055       -2.5198349620
 O         -3.6082492009       -1.9868958297       -3.7912902409
 H         -2.6402681098       -2.1291337946       -3.7633987059
 H         -3.8572581702       -2.0060694606       -4.7149919392
 O         -1.6203482355        3.9231182854       -2.0000253269
 H         -0.7672223068        4.1525282126       -2.3974184942
 H         -1.5672720097        2.9458558817       -1.8851093785
 O          0.6140301821       -2.7692150705        2.5701528525
 H          0.4922333902       -2.0582382895        1.8413216298
 H          0.8280819024       -2.2705227742        3.3626348427
 O          2.4244560358       -4.1526137511        1.3542114989
 H          1.7218584907       -3.6423394480        1.8559889856
 H          2.4921736443       -5.0106779850        1.7736029372
 O          1.5114904423        1.2141149440       -4.5819119992
 H          0.5755824197        1.0100572106       -4.2990381423
 H          1.4539004984        1.4661679257       -5.5034229177
 O          0.5773141897       -0.3119748780        4.2018454300
 H         -0.2133690695       -0.4223665632        3.6258622632
 H          0.4444291571        0.5242478689        4.6520993660
 O          3.0377096665       -0.0564649739        3.0829114571
 H          2.2131651194       -0.2640350730        3.5620433400
 H          2.8390535480        0.7779862895        2.6286558439
 O          1.8951420829        4.6452811559        0.6487796598
 H          2.5251463095        4.4040554356       -0.0799957104
 H          2.0983671128        5.5525949963        0.8745294128
 O         -0.8582826663        4.0491174772        0.5604219172
 H         -1.1313349934        4.0949988199       -0.3865883398
 H          0.0663434439        4.3435405747        0.5669104874
 O         -3.8678089160       -0.1520054428        4.3250340867
 H         -4.4023110373       -0.8542337895        3.9267982370
 H         -4.2086906075        0.6943729557        3.9976654212
 O         -4.7365307523       -2.4254424286        2.8974028758
 H         -5.3426823009       -3.1509301626        3.0487528210
 H         -3.8488645780       -2.8192984739        2.8066401182
 O         -0.3570239342        1.7772928721        1.9249662137
 H         -0.6391408144        2.5555986939        1.4003419679
 H         -0.7886495589        1.8538654850        2.7932531628
 O         -3.9096790093        0.1074583312       -1.9803855015
 H         -3.9313922573       -0.4825484111       -2.7507395446
 H         -4.6097042084       -0.1771401726       -1.3832571059
 O          3.5701684205        2.5053999703       -3.2890438469
 H          2.8095425383        2.0758184794       -3.7180342277
 H          4.1610927873        1.7871540922       -3.0296330371
 O         -1.6653165089        1.9316581596        4.3602596750
 H         -2.5175304083        2.3065928385        4.0821442001
 H         -1.9025091845        1.1305993179        4.8360162214
 O          4.6742520887        1.6253096213        0.4356661373
 H          5.2565906312        1.2269139831        1.1095129446
 H          3.8222330839        1.7472610221        0.8783057277
 O         -2.7697658084        0.5333469974        0.7652507339
 H         -3.0803754751        1.4415205317        0.9499230870
 H         -3.5618758187       -0.0198563610        0.6052811450
 O         -1.7595957019       -1.4574233013       -1.0807938124
 H         -2.4962912011       -0.8588072025       -1.2903821391
 H         -2.1256774097       -2.2869127679       -0.7111394389
 O         -2.1318209214       -3.2234708552        2.5008152049
 H         -1.2644244885       -3.6025231624        2.6876948580
 H         -1.9491564806       -2.2481556784        2.5505492334
 O         -4.6558707142       -3.0642718010       -1.3872144675
 H         -4.3672861058       -2.7880080600       -2.2691024145
 H         -3.9148681921       -3.5635756965       -1.0064891772
 O          5.3772066867       -2.0409668218       -0.5942170857
 H          6.2847987325       -2.3307499923       -0.4999223328
 H          4.9937502271       -2.0024046525        0.3143392494
 O          5.7804594560        0.2754980656        2.5357014131
 H          4.9612006266        0.2864565870        3.0503778005
 H          5.9206686364       -0.6495363663        2.3146931384
 O          4.3222509074       -2.1767121762        1.8471089874
 H          3.8069446072       -1.4639952368        2.2687526545
 H          3.6995197235       -2.9090586105        1.7059999103
 O         -4.2021125039        2.8907363700       -1.5040236043
 H         -4.0315764322        1.9690621374       -1.7603599091
 H         -3.5080423260        3.4187580020       -1.9200504005
 O          0.2398224100       -4.1841747814       -0.6821875184
 H          0.5813967046       -3.7328605636       -1.4670086227
 H          0.9654718572       -4.2041861146       -0.0492949038
 O          3.5984211785       -4.0692388256       -1.2790070553
 H          4.2564289494       -3.3583342500       -1.2126496781
 H          3.2362192586       -4.1780008490       -0.3911902413
 O         -4.2460295110        2.4969819556        3.4747665862
 H         -4.8527065920        3.1637721112        3.7958528014
 H         -4.0372257674        2.7370599742        2.5455513970
 O         -2.3803224876       -3.8629013524       -0.1051010616
 H         -1.4787962228       -4.1425479805       -0.3524018838
 H         -2.3491544370       -3.6970898117        0.8584966029
 O          2.2074593132        2.1697819264        1.6864010345
 H          1.2515340099        1.9747306996        1.8808432927
 H          2.2191817963        3.1295139740        1.5197004610
 O          3.8485147186        3.9167667130       -0.9623536436
 H          4.3583085046        3.2561828635       -0.4725442356
 H          3.7140330615        3.5257957144       -1.8452568074
 O          4.8448365339        0.2983313044       -1.9855089387
 H          4.8368005864        0.8459386865       -1.1792076727
 H          5.1024274941       -0.5798017692       -1.6650831894
 O         -4.8829463261       -1.1030689463        0.4258303893
 H         -4.8624027397       -1.8545608306       -0.2086764670
 H         -4.9484696400       -1.5108680618        1.3018183043
 O         -1.7094371039       -0.6649583687        2.8486447611
 H         -2.4468904203       -0.4810147589        3.4694353549
 H         -1.9419678929       -0.1780271007        2.0229710258
 O          1.0606828396        3.8081231056       -2.3978174246
 H          1.8289061849        3.9012614825       -2.9639263264
 H          1.1846082055        2.9720350432       -1.9223143108
 O          0.2344551277       -0.8303895324        0.7635413821
 H         -0.4554137815       -1.0246881470        0.0991335367
 H          0.0344692554        0.0464066179        1.1298322754
 O          1.2643361616        1.6080397544       -0.9076620156
 H          1.5608125178        2.0158190533       -0.0831999840
 H          1.8663904827        0.8429532554       -1.0295220229
 O          2.6244162998       -0.6104612976       -0.5679307095
 H          2.6728088048       -1.2248508801       -1.3016543132
 H          1.8653819816       -0.8514031656       -0.0143989895
