  181
       -305.70827078
 H          0.0415729604        0.4367391405        0.0650902427
 O         -0.2494678077       -0.3426789524       -0.5029951580
 H         -0.4006659231       -0.1753172797       -1.5214448463
 H          0.3631755186       -1.1492024777       -0.4255898631
 O          1.1525628522       -1.1604627053        1.7600112985
 H          2.0808114849       -1.3642285085        1.9499247793
 H          0.7664544123       -0.7823478595        2.5683075299
 O         -5.2763233275        1.2034832643       -2.4090834834
 H         -6.1391330816        1.1481659282       -2.8207866936
 H         -5.3793347492        1.8150564557       -1.6347332381
 O         -1.8389955550       -2.2015995186       -1.3252708707
 H         -2.5113564097       -1.5371428855       -1.4867538215
 H         -1.7448697628       -2.7320020189       -2.1391877216
 O         -4.2671948445       -2.9717841353       -0.0024991330
 H         -4.0582318928       -2.0162550929       -0.0106899673
 H         -4.7515135481       -3.1448132378        0.8054700099
 O         -2.1510187585        1.7107572098       -0.5725252703
 H         -2.4700371265        2.4136647354        0.0255733166
 H         -2.6524068381        0.9028810120       -0.3515756371
 O          1.3790644980       -4.0534066948        1.6284900669
 H          0.5857088297       -4.6290397602        1.6216515341
 H          1.3912956938       -3.6316111196        2.5090116356
 O          1.3367881951       -3.1232060604        4.2215294340
 H          0.3981823329       -2.9471151663        4.5098356579
 H          1.6967349955       -3.7493627695        4.8492618673
 O          3.8724246055       -4.0918957539        0.6312802844
 H          2.9493667085       -4.1195977311        0.9724986902
 H          4.3121063490       -4.8646736569        0.9882290571
 O         -2.3977769492        0.0558416458        2.1407178719
 H         -1.9103879626       -0.6041890967        1.6018778274
 H         -3.1369740024       -0.4810439599        2.5013052251
 O         -0.8727549208       -5.5266110095        1.6401618934
 H         -0.7890610518       -6.4795660255        1.6101292514
 H         -1.3930635433       -5.2752910575        0.8371466992
 O          2.6610647836       -0.7115563036        4.4910077297
 H          2.0572253620       -1.4771114493        4.4406017171
 H          3.4804089883       -1.0387090947        4.1024178739
 O          2.0545013453        0.3982944310       -2.9954439556
 H          2.5169614747        0.0517307527       -2.2124997879
 H          1.4133515591        1.0472032026       -2.6807794375
 O         -2.3931271531        4.9931713964       -1.6723093605
 H         -2.6466076167        4.2838672431       -2.2905037770
 H         -2.8360082338        4.7921319397       -0.8437770764
 O         -3.9920130569       -0.2654750284       -0.2911257295
 H         -4.5107771719        0.0100256859       -1.0582557954
 H         -4.4913778684        0.0544835835        0.4949554142
 O          0.9450229236        1.4312718272        5.5500626022
 H          1.6606003633        0.7858111566        5.5822612745
 H          1.3221343722        2.2383978487        5.1735851645
 O          4.1347975705       -2.0449733890       -3.3091078194
 H          3.2595115514       -2.0903663131       -3.7241693810
 H          4.4028051078       -1.1179142383       -3.4256661607
 O         -5.5112917761        2.6348654780       -0.2262257582
 H         -5.7833439076        2.0390294702        0.4833029260
 H         -4.7777332733        3.1622197151        0.1198691004
 O         -2.8511263566        2.6421023715       -2.9635661717
 H         -3.7388607386        2.3164531154       -3.1422608229
 H         -2.5785767536        2.2129601887       -2.1184578381
 O         -0.8758604048       -2.3110448439       -5.5696699484
 H         -0.8606559141       -2.7187750374       -6.4353070000
 H         -1.3498911087       -1.4437598590       -5.6769711741
 O         -3.6958858341        2.1870163259        3.0949478596
 H         -3.5470174707        2.2738221310        4.0416182927
 H         -3.0622145793        1.5091326137        2.7872477980
 O          4.9790509525        0.6286040277       -3.3932847503
 H          4.3913334821        1.4139896696       -3.2401464025
 H          5.5469728214        0.8549194965       -4.1294991589
 O         -1.2778914546       -2.1779965381        1.2495394139
 H         -1.4299357141       -2.2950077046        0.2914012430
 H         -0.3301920737       -2.0002606464        1.3915851023
 O          1.4287182345        3.7845127785       -4.1110233957
 H          1.0676949453        4.3283103642       -3.3844506324
 H          1.6204345667        4.3783946132       -4.8370302784
 O          1.4858244153       -1.9181791974       -4.1977244407
 H          1.5128106466       -1.0194741801       -3.7998311741
 H          0.7020420477       -1.9427577757       -4.7703400570
 O          6.0753378531        0.5747928187       -0.9315585034
 H          5.6666800715        0.6258481331       -1.8218657767
 H          6.3021096747       -0.3551532727       -0.8203230259
 O         -4.3232819001       -3.0217233763       -2.8397963951
 H         -3.6153190050       -3.6107201269       -3.1292485901
 H         -4.4314090342       -3.1608647103       -1.8869770821
 O         -0.6919424009       -0.2007355346       -2.9509809705
 H         -0.5298905368        0.6029679393       -3.4893060998
 H         -1.6256882041       -0.4289019678       -3.0822140156
 O         -2.3400377456       -4.9123335555       -0.4632223742
 H         -1.9858040418       -4.7540113870       -1.3415388629
 H         -2.9697985941       -4.1911659453       -0.2833383261
 O          5.3266979733       -2.1200829181       -0.8572187846
 H          5.0684324890       -2.2234701697       -1.7916965104
 H          5.0514108563       -2.9228658993       -0.4016175901
 O         -3.3754698743       -0.5985941322       -3.3283539231
 H         -4.0700184481        0.0387167609       -3.1222710114
 H         -3.7829432828       -1.4941325379       -3.2615504549
 O          1.8116276556        3.4173465305        3.7586153619
 H          2.3086229688        4.1597393482        3.4083474830
 H          2.1648510932        2.6324882414        3.2717596674
 O          2.4716819585        1.1806232855        2.5662763498
 H          3.3126498045        1.1040713202        2.0786031545
 H          2.4845662256        0.4982200421        3.2688406480
 O          4.8911615077        0.8853694814        1.4274141169
 H          5.2095993759        0.8042109539        0.4987372298
 H          5.3886681149        1.6143465230        1.8013053496
 O          3.8769225704       -1.6275106568        2.1760722590
 H          4.3398013116       -0.8539110339        1.8203894686
 H          4.0852126079       -2.3748202713        1.6039864249
 O         -0.3055240410       -0.1613874041        3.7733930135
 H         -0.0016634593        0.5084520653        4.4141304379
 H         -1.0985718269        0.1578391073        3.3004980970
 O          0.2728669730        4.8668462483       -1.9189483484
 H          0.5981409779        4.8824281587       -1.0001776864
 H         -0.6858593889        5.0644450601       -1.8716521361
 O          3.4367298504        3.8799132592        1.3755187354
 H          4.2521893491        4.2159599838        0.9882531893
 H          3.2533271618        3.0854638918        0.8319410593
 O          3.1113143224       -0.5710774989       -0.6478332459
 H          3.9829375312       -1.0000203929       -0.6909099275
 H          2.4590041957       -1.2852907662       -0.5141461253
 O         -1.2299713399        5.3005807208        1.8792311674
 H         -1.2524932411        6.2565638415        1.9071384628
 H         -0.4012174471        5.0383720216        1.4076982965
 O          2.6679828445        2.0255426523       -0.4113577703
 H          1.7482544308        2.0605171516       -0.7422993097
 H          2.9063978980        1.0823509897       -0.3527776570
 O          1.2107239515       -2.4329902531       -0.5287567649
 H          1.0014801310       -3.0123669797       -1.3053630434
 H          1.2177813246       -2.9958922716        0.2685360449
 O          5.5197933239        3.4266875877       -0.4910945725
 H          5.0682441276        3.5584667540       -1.3324921494
 H          5.9967233583        2.5963833619       -0.5914786230
 O         -1.9656895726        1.8130763577        5.3490102097
 H         -1.3174684021        1.7859154080        6.0564983250
 H         -1.5006387036        2.2209160995        4.5891486439
 O         -3.2665000895       -0.6448217798        5.3969726106
 H         -2.8453613046        0.2295682671        5.4402787740
 H         -2.5812144547       -1.2953685305        5.6020125203
 O          3.4587846581       -4.6068923927       -2.1466983619
 H          3.6014735611       -4.4123801512       -1.2092314648
 H          3.8517261338       -3.8843416162       -2.6526489909
 O         -1.1057546516       -2.4474486139        4.8642544871
 H         -1.6960272108       -2.9170152084        4.2388853018
 H         -0.8838357857       -1.5826073410        4.4509010730
 O          0.3323678958        1.6213452626        1.0669271349
 H         -0.3258836417        1.8170243713        1.7539438509
 H          1.1414467057        1.3367432638        1.5506187940
 O         -2.5931181126       -3.6562985734        2.9465795046
 H         -2.2921814126       -4.5602118734        2.8105382351
 H         -2.1163753997       -3.1370690451        2.2531976799
 O         -3.1823967468        3.7005900013        0.9387370046
 H         -2.5303849312        4.3717965844        1.2175144310
 H         -3.4440002488        3.2574356845        1.7701957837
 O          0.2993201447        2.1857215882       -1.6697374830
 H         -0.5518852042        2.0120436786       -1.2356887664
 H          0.2973359693        3.1362743539       -1.8881013325
 O          3.7201224626        2.8582358107       -2.7358359899
 H          2.9602300747        3.0857846531       -3.2925188172
 H          3.3454919804        2.5857506722       -1.8685069983
 O          0.9137322544       -3.9454719097       -2.6222086418
 H          1.1208560009       -3.2072002691       -3.2504074160
 H          1.7539711309       -4.4368401616       -2.5318728918
 O         -0.7623962875        2.9030820565        3.1905496200
 H          0.1591576720        3.1181594490        3.4538378020
 H         -1.1411309498        3.7468236283        2.9112041117
 O         -1.6443366284       -3.8449261763       -3.4309043433
 H         -0.7521840429       -4.1527614418       -3.1904093467
 H         -1.4940240375       -3.3088525196       -4.2331479183
 O          0.8858375781        4.3052357142        0.6608969527
 H          0.6764663251        3.3489073760        0.6962784468
 H          1.8209205918        4.3608437437        0.9468711203
 O         -5.4650019983        0.6105622629        1.7702465801
 H         -5.4906160021       -0.2108269097        2.2804625719
 H         -4.9914532357        1.2438168678        2.3423045313
 O         -4.3410557093       -1.5225034104        3.1320328187
 H         -3.9383552766       -2.4030670845        3.0847794614
 H         -4.1448124385       -1.2139299748        4.0438394135
 O         -2.1624719350       -0.0319755024       -5.7426471287
 H         -2.7377455871       -0.1607094194       -4.9690934943
 H         -1.5848197379        0.7163065649       -5.5315076852
 O         -0.6681030241        1.9707698278       -4.4866448089
 H          0.1051031778        2.5541240094       -4.4172252120
 H         -1.4118890900        2.4091843240       -4.0372383773
