  191
       -320.32132350
 H          2.9932882637        0.6037848655        1.2020007292
 C          2.3814491567        1.3252507764        0.6539459294
 H          2.8145771462        2.3164048353        0.7936190465
 C          0.9529674408        1.3113021154        1.1856446294
 H          0.3275940555        1.9280106581        0.5422960947
 H          0.9514253324        1.7309524163        2.1889289908
 N          0.3588398796       -0.0155379725        1.2573589265
 H          0.3063735948       -0.4277277847        0.3333004344
 H          0.9434022900       -0.6200982321        1.8222888906
 O          2.4628893097        0.9996350040       -0.7299750419
 H          1.5692774663        0.7578292701       -1.0807676237
 O         -2.0888288179        2.9307803298        3.1826283527
 H         -1.9937080799        2.0027462531        2.8615268510
 H         -1.8520616642        3.4984706962        2.4184802820
 O          4.6966609575        4.3738055178        3.2134514600
 H          5.0106233975        3.8535423691        2.4432369513
 H          4.7673609868        5.2945370594        2.9595302169
 O          5.0241919358       -2.9188130077       -1.7317453968
 H          4.9838556533       -1.9474627645       -1.6488626334
 H          4.8338024795       -3.2520016984       -0.8389695531
 O          1.1914312231        0.7049868713       -6.0190463747
 H          0.6589319895        1.3958725147       -5.6031599990
 H          2.0631227236        0.7779618810       -5.5870150071
 O         -2.0341606916        3.7963791581       -2.6033232201
 H         -2.6829750972        3.3747916781       -3.2188468674
 H         -2.5650973460        4.3781715033       -2.0416782586
 O          4.6025407423       -3.3614171756        0.9785389472
 H          5.3852601761       -2.7876342981        1.0451873758
 H          3.9353452466       -2.9013427510        1.5133426843
 O          2.2504947959       -1.1395269309       -2.9085960739
 H          2.1758942646       -1.3390940506       -1.9518354779
 H          2.7218107373       -1.8964822698       -3.2972240429
 O         -1.7494364644        1.9584273415       -0.5832951163
 H         -2.5668318545        1.5963581686       -0.1948528449
 H         -1.9930501613        2.5048961204       -1.3523457494
 O          0.9981506059       -0.3918329284        4.9746371158
 H          0.6315473189       -1.0327366054        4.3497947834
 H          0.4941214312        0.4382948783        4.8947429264
 O          0.5709980719        3.4992142641       -1.3183041613
 H         -0.1939132283        3.8246485305       -1.8026319329
 H          1.3352176752        3.5124095345       -1.9136121776
 O          3.0917410736        0.6429079136        3.7489768538
 H          2.8006242267        1.5634994386        3.6103089684
 H          2.4413102253        0.2597866549        4.3820503248
 O         -1.7880646099       -5.0841284911        0.8035075352
 H         -1.3910987194       -4.1804284042        0.8464946015
 H         -1.9425593079       -5.2255585613       -0.1381593042
 O         -3.7731027934        2.3954851786       -4.0220543164
 H         -3.3922019671        1.5232666514       -4.1880551994
 H         -4.4250515737        2.2884869128       -3.3132241170
 O          3.2449111238        1.0127399983       -4.2373434412
 H          2.9895011465        1.8205765024       -3.7770595794
 H          2.9244679203        0.2728637421       -3.6848500302
 O         -0.0271252383        2.1349748746        4.7628740585
 H          0.7704802265        2.6169962177        4.5033463755
 H         -0.7614752235        2.5635357070        4.2820738196
 O         -4.2722550110       -4.4620477137        1.7444157896
 H         -4.6654113608       -4.2610067532        0.8857364807
 H         -3.3806811863       -4.8109818313        1.5363345981
 O          0.3139000512       -2.6069818152        3.2606567271
 H         -0.4463911140       -2.6988201548        3.8580093129
 H         -0.0731377983       -2.5259863295        2.3601195102
 O         -5.8637316420       -0.6992934211        0.2156151968
 H         -5.7483983746       -1.6494077810        0.1392069900
 H         -6.4542495115       -0.5342001035        0.9640474067
 O         -0.7417895723       -2.6599870957        0.8438420060
 H         -1.5916425319       -2.1647983569        0.7624287687
 H         -0.3181362339       -2.5309512659       -0.0286884179
 O          0.7771319931       -5.1817717160        2.0530157327
 H          0.6865256416       -4.3801628566        2.5901356998
 H         -0.1106365992       -5.4027615426        1.7360169652
 O          5.5800473653        0.7378444093        2.8386167460
 H          4.6976609244        0.6718648614        3.2601277598
 H          6.1838341821        1.0650109336        3.5059309250
 O         -1.8945801454       -2.4264947636        4.8739672685
 H         -1.9967184638       -2.9041730180        5.6965586399
 H         -1.9652777736       -1.4641184974        5.0868830883
 O         -1.9233188535        0.3611174917        2.4874115220
 H         -2.6281907316        0.4093935312        1.8125550381
 H         -1.0715723699        0.1686458546        1.9994694549
 O          2.7864527896       -1.7236101723        2.3204048154
 H          3.0287128660       -0.9434684268        2.8472366114
 H          2.1116485501       -2.1987229615        2.8250771667
 O          3.7221394172        4.7353501158       -0.1810427227
 H          4.3103489823        4.1194313081        0.2857328779
 H          2.9302352248        4.8355251527        0.3645380558
 O         -3.4995843631       -0.1010219193       -1.7565893817
 H         -4.2067608022       -0.6734820824       -2.1048557178
 H         -3.2115226262       -0.5144974146       -0.9244034673
 O          0.0806552847        0.4855464502       -1.8424775132
 H         -0.5937419805        0.9624580942       -1.3118415606
 H          0.1434984823        0.9904831065       -2.6745210426
 O         -4.8855166966        0.1363029820        4.0397660919
 H         -4.1816109740        0.2968591813        4.6842240233
 H         -4.5999569095       -0.6820872840        3.5867734880
 O         -3.0891932182       -1.5984686269        0.4933104409
 H         -3.3945829887       -1.6102584202        1.4251038115
 H         -3.6261065759       -2.2808473564        0.0383889015
 O         -0.3196992388        2.0475450613       -4.0544431830
 H         -1.0699412962        1.4476824913       -4.2330267224
 H         -0.7120050422        2.8718560386       -3.7509604310
 O          3.4563519312       -3.4279404915       -3.7280136804
 H          4.0895892088       -3.3401105080       -2.9613659901
 H          3.9812675652       -3.6305861007       -4.5008720240
 O          5.3029514129        2.8425691304        1.0769627916
 H          5.3605443256        2.0195610268        1.5915516306
 H          6.0696474180        2.8077226697        0.4534881226
 O          1.2082587183        4.4928724297        1.1292872815
 H          0.3510305367        4.8407406747        1.3970379647
 H          1.0177963063        4.0804545350        0.2606280606
 O         -3.8936680538       -2.1500611354        2.9663369429
 H         -3.1633922659       -2.3072277287        3.5876030626
 H         -4.1475138135       -3.0431072614        2.6293075112
 O         -4.7290458243        2.6326808347        2.8107984816
 H         -4.8910354861        1.8480563885        3.3602241459
 H         -3.8288136831        2.9345040259        3.0593038103
 O         -3.8898983284        4.4785121916       -0.6597179655
 H         -4.6327857457        5.0485074996       -0.4646315366
 H         -4.2829997168        3.6197964566       -0.9527539499
 O         -4.9954772079        2.2010521590       -1.5294148596
 H         -5.6863426701        2.1758723568       -0.8415788179
 H         -4.4843738493        1.3720755299       -1.4373735754
 O          2.2502688757       -4.6232614150       -0.1101182478
 H          3.1654033438       -4.5981318827        0.1923583467
 H          1.7184066690       -4.8919522509        0.6739015402
 O         -0.5188684964       -2.1730760443       -1.7398330245
 H          0.1558031652       -2.7522334169       -2.1411649389
 H         -0.2541481457       -1.2481682477       -1.8900729742
 O          7.2531986658        2.4955394279       -0.6710262509
 H          7.7513657909        1.6837356739       -0.4594657419
 H          6.8218082377        2.3324422445       -1.5196078851
 O          5.5159174796        1.8112817157       -2.8097683543
 H          5.2439482008        1.4354018612       -3.6562030523
 H          4.7967147305        2.4395332925       -2.5884937527
 O         -5.2513913633       -1.8299594077       -2.9460007251
 H         -4.6127664358       -2.0880154233       -3.6659781981
 H         -6.0532653501       -1.5415749244       -3.3801290922
 O          0.1222130165       -1.2395589871       -4.5512142359
 H          0.8320111226       -1.2082636717       -3.8749968377
 H          0.4599897417       -0.6609175893       -5.2714937857
 O          1.9762894426       -1.9609995446       -0.3713389664
 H          2.3956011834       -1.6925487942        0.4556442003
 H          2.0441474653       -2.9367700989       -0.3759741740
 O          1.0858019716       -4.1959066300       -2.6084451848
 H          1.3995096411       -4.5604249725       -1.7676276652
 H          1.8905179388       -3.9970088103       -3.1142634174
 O         -2.1455662770        0.0231906218       -4.0660461855
 H         -1.3140888649       -0.5035088539       -4.1651049247
 H         -2.4428841674       -0.0764714285       -3.1377730067
 O         -4.6435224479       -3.3658894642       -0.8112705424
 H         -3.8599810955       -3.8093816158       -1.2079686827
 H         -5.0411850911       -2.8848375994       -1.5578642556
 O          2.2263395862        3.2636422655        3.4218131436
 H          3.0986322175        3.6876685920        3.5367404580
 H          1.8496703837        3.6894378415        2.6301885250
 O         -3.8721727179        1.0478738786        0.8176352713
 H         -4.5754368322        0.4130422180        0.5851342160
 H         -4.2609075887        1.7015872461        1.4322065718
 O          4.8182702069       -0.2528466553       -1.2111660497
 H          3.9117592519        0.0530394577       -1.0282439724
 H          5.2142821220        0.4495411160       -1.7652832532
 O         -1.5950087310        4.2190810557        0.9059724856
 H         -2.4222430349        4.5474512813        0.5259793694
 H         -1.4171803310        3.4030672573        0.3946306944
 O          3.1767504483        3.1070720459       -2.2241780703
 H          2.9566741500        2.3455852653       -1.6442292037
 H          3.4312377093        3.8277359355       -1.6049510746
 O         -1.0799752448       -3.7089163224       -4.3532909535
 H         -0.3922340668       -4.1860829942       -3.8700877157
 H         -0.6601390745       -2.8540539649       -4.5608636052
 O          6.2125536971       -1.1284783312        0.9216472980
 H          6.0161487966       -0.5364398458        1.6651798611
 H          5.6857750449       -0.7889346820        0.1666281734
 O         -2.2677289649        0.1913305809        5.0962229017
 H         -1.6356124682        0.8104326764        5.4734988247
 H         -2.1399280221        0.2581011513        4.1194990262
 O         -2.3345725850       -4.1656264782       -1.8520991840
 H         -1.7670217200       -3.3792943388       -1.7236684582
 H         -2.2294154955       -4.3646131377       -2.7895365445
 O         -3.4718345278       -2.2755244929       -4.7992170017
 H         -3.0303423985       -1.4065802085       -4.7643499180
 H         -2.7619547625       -2.9285282783       -4.7167900062
 O         -6.5762921641        2.4471327274        0.7108580476
 H         -6.9966441880        1.6744246835        1.1059638599
 H         -6.0216902680        2.8133651833        1.4145673269
 O         -7.1694412323        0.2069280833        2.4760079045
 H         -7.9514148276        0.0271651526        2.9974846730
 H         -6.4208803089        0.2365451944        3.0962510056
 O          8.3866343460        0.0441791668       -0.1793402990
 H          8.6486699134       -0.4945892100       -0.9262903711
 H          7.6879970407       -0.4587222090        0.2904245331
