  116
       -193.00790645
 H         -0.9705809648       -1.3229746218       -1.1748449251
 C         -0.5523051606       -0.9764811707       -0.2264987143
 H         -0.9525015194       -1.5898381871        0.5803818873
 C         -0.8644370854        0.5121563967       -0.0247470289
 H         -0.1829303423        1.0800318516       -0.6609189822
 H         -0.6815903557        0.7920147336        1.0131513590
 N         -2.2208948641        0.9091860843       -0.3635516343
 H         -2.4334567947        0.6405579061       -1.3180738533
 H         -2.8794009146        0.4418057996        0.2509436777
 O          0.8502619755       -1.1720105526       -0.2253812372
 H          1.2115820778       -0.6887915567       -1.0006305345
 O          0.3809615704       -2.4634747454       -3.3904314180
 H          0.6519580267       -2.9346777193       -4.1782925339
 H          0.4457531188       -3.1220779752       -2.6450646483
 O          5.4013961915       -0.4986658182       -2.1556700050
 H          5.9677779883       -0.0435851305       -1.4713051051
 H          5.9246112649       -1.2213727056       -2.5008193753
 O          4.0572746376        3.3511758487       -2.3046442832
 H          3.6782522028        4.0564018664       -2.8299579647
 H          3.9499684298        2.5126277974       -2.8447012571
 O         -1.2758247860       -4.6468857707        0.4434930960
 H         -1.0966722589       -4.1858820140        1.3092846267
 H         -1.1727890589       -5.5804710477        0.6345148967
 O         -3.8760449715       -4.2914160355       -0.4418300373
 H         -3.0046916928       -4.4968526717       -0.0612574298
 H         -3.7081179035       -3.5324956066       -1.0218461940
 O          2.6622927630       -3.1300318111        0.0930843161
 H          1.9937245304       -2.4209309003        0.0155939801
 H          3.5071898488       -2.6869718017       -0.0053855110
 O          3.3444096531       -0.2281148697       -0.3534579921
 H          3.9570604912       -0.3563035708       -1.0934316161
 H          2.9057051721        0.6294491648       -0.4999492984
 O          1.2815943417        0.0180679280       -2.6752809101
 H          0.5393827851        0.5949617535       -2.9173682938
 H          1.0568236022       -0.8548595438       -3.0472576325
 O         -5.4584020481        1.4285929783       -1.4293744848
 H         -5.6682219701        0.5105939686       -1.1705491380
 H         -6.2274508965        1.7560217665       -1.8986017357
 O         -2.0556191150       -1.1439339144       -3.5828793592
 H         -2.6036410543       -1.4016278695       -2.8255322138
 H         -1.2647800481       -1.7077200064       -3.5590909259
 O         -6.1834397432       -1.1581985166       -0.9003368789
 H         -6.0053386982       -1.7231918813       -0.0850969319
 H         -6.8909414378       -1.5989427340       -1.3708392659
 O         -5.4845860863       -2.7154996193        1.0561364182
 H         -5.0295244460       -3.4514518942        0.5913404337
 H         -4.7631103786       -2.1989747938        1.4555193372
 O         -3.4086193314       -0.9931528575        1.5551261323
 H         -2.6083683687       -1.0951252893        2.1089783209
 H         -3.8958834809       -0.2529126525        1.9606204902
 O          0.0786038185        3.3680549353       -1.7816849976
 H         -0.6762874800        3.5811370266       -1.2033734916
 H         -0.2654456081        2.7625744158       -2.4541178095
 O         -1.1031147373        1.3582771272       -3.3300835227
 H         -1.8949055539        1.9241146243       -3.2686283113
 H         -1.4591613349        0.4697827217       -3.5444747683
 O         -0.7125361904       -3.5936093780        2.7606328558
 H          0.2612073772       -3.6576609036        2.8407217429
 H         -0.9483885810       -2.6893506083        3.0126529575
 O         -1.1749984866       -0.8717252013        3.1099663868
 H         -0.2560824507       -0.6634592070        2.8547062944
 H         -1.4954235579       -0.0523843096        3.5436404702
 O          1.7669296824        2.3969447895        1.9519555219
 H          1.9109232985        2.3971092781        0.9787285671
 H          1.6066492124        1.4537027210        2.1787733214
 O          1.3562149725       -0.2212422856        2.2972546411
 H          1.3510492773       -0.5805634921        1.3899093498
 H          2.0661010746       -0.6828799167        2.7834317225
 O          3.6459954249        1.1084090917       -3.5441923038
 H          2.7841073319        0.7457921675       -3.2568276360
 H          4.3201872917        0.5057800757       -3.1909221138
 O          2.1910591451        2.2492888650       -0.6616118200
 H          1.3772566892        2.6287134007       -1.0719031705
 H          2.9184556313        2.7133358576       -1.1109380303
 O          4.4875582398        2.4023732824        2.3355687246
 H          3.5185996790        2.5175235144        2.3061502031
 H          4.8414498174        2.8152611611        1.5355698762
 O         -0.6407973899        3.4563478511        2.2748877374
 H         -0.5314154900        4.2323923527        2.8248477379
 H          0.2675407476        3.0745243975        2.1565111851
 O         -2.0600277286        1.5680198684        3.7874339080
 H         -2.9613078228        1.5314553263        3.4293135448
 H         -1.5833588719        2.2237553434        3.2525600008
 O          1.9952387939       -3.6658333634        2.7248514198
 H          2.5118879171       -2.9711173599        3.1540051511
 H          2.2590848119       -3.6464660275        1.7897509540
 O         -3.5273678761       -1.6767674615       -1.2703587133
 H         -3.3368084484       -1.5258650365       -0.3310957818
 H         -4.4698647267       -1.4607439848       -1.3689768067
 O          3.4589680122       -1.3972949738        3.5338001675
 H          4.1238490702       -1.0148018393        2.9027833238
 H          3.7191661214       -1.1164917279        4.4108980829
 O          0.6300663404       -4.2518369882       -1.4950363176
 H         -0.1000260675       -4.3344467248       -0.8513592887
 H          1.4236832069       -4.0680366225       -0.9725018756
 O         -2.1080298708        3.5163731808       -0.0688047303
 H         -1.6241202757        3.6430550015        0.7642583699
 H         -2.1519432423        2.5160076107       -0.1771217055
 O          4.9436858953       -0.1444902107        1.7629475578
 H          4.8357198639        0.7812161231        2.0919409675
 H          4.3063083869       -0.2150189154        1.0128754701
 O          5.6608751791        3.2309772512       -0.1256656252
 H          6.2955887181        3.9467863543       -0.1657203381
 H          5.1136481895        3.2913576727       -0.9323772799
 O         -3.3042175576        2.8428101078       -2.6513236623
 H         -4.0076671453        2.2869221510       -2.2886611767
 H         -2.9978691989        3.3974350049       -1.9256788765
 O         -4.5382686504        1.2806771869        2.5658642707
 H         -5.3481299011        1.3114285713        3.0745891012
 H         -4.6070095795        1.9963695052        1.8764420556
 O         -4.7107969401        3.0820470766        0.6743069835
 H         -3.8192785769        3.4102677990        0.4463230927
 H         -4.9945037195        2.5375351842       -0.0788699188
 O          6.6979798000        0.6456120559       -0.1909693767
 H          6.4292079475        1.5793310459       -0.1637085899
 H          6.2797894415        0.2426213504        0.5945023951
