  249
       -422.57019570
 O         -0.9881627400        2.3710588814       -2.3382981676
 H         -0.5662944767        2.8207898276       -1.5729106516
 H         -1.6397780322        3.0112516493       -2.6655064372
 O          1.6402219157        0.9690814266        2.7267354662
 H          2.0702258246        0.1035184709        2.6228312043
 H          2.1684576399        1.3925719688        3.4129487180
 O         -0.1796693271       -1.2095363425        3.2141678620
 H         -0.6945918778       -1.9143514796        3.6624581602
 H         -0.8267937690       -0.7434335261        2.6497971745
 O         -1.4060502549       -3.0402392941        0.7551844070
 H         -1.3993810029       -3.2112796719       -0.1977697948
 H         -1.7332763135       -2.1289830039        0.8896323367
 O         -3.8289842191        0.9843013800       -1.8019785643
 H         -3.2216498888        1.2643461317       -1.0985270813
 H         -3.5132089183        1.4066683493       -2.6213849644
 O          8.6839576247       -0.2959482139       -1.3734261131
 H          8.8159205244       -0.3780397479       -2.3199467035
 H          7.7672935629        0.0354780848       -1.2690553070
 O         -3.4036965368       -3.7127084327        2.6191463434
 H         -2.8835771424       -3.6405398311        1.8046203796
 H         -4.2367442654       -3.2296273132        2.4804316442
 O         -0.0309299339       -4.5718757475        2.8513309844
 H          0.2832468364       -5.3607566305        2.3819121678
 H         -0.5870209101       -4.1183512435        2.2030667211
 O         -1.0369752339        2.7163914158       -5.6203658733
 H         -0.6144205536        3.4841019592       -5.1966704246
 H         -1.8617289884        2.5826043274       -5.1301760663
 O         -2.2998912805       -0.8114701821        5.7648120045
 H         -2.8818628739       -1.0011523389        6.5011384670
 H         -2.0128197111       -1.6733343413        5.4061828648
 O         -1.8787063770       -0.8427385745       -4.2956608749
 H         -1.6960489812       -0.5776842529       -3.3712448828
 H         -2.7340343584       -0.4468053186       -4.5431198777
 O          1.2778407354        1.4680735088       -3.4808972371
 H          0.9881834257        1.0908034539       -4.3393252678
 H          0.4796475408        1.9110504894       -3.1336548179
 O          1.4569529720       -0.5387291579        5.2370963603
 H          1.4217085143       -1.3237610301        5.7824192474
 H          0.9467403044       -0.7339703830        4.4194465030
 O         -3.5413760486       -4.5286595072       -0.5064903537
 H         -3.4277410415       -3.5762830558       -0.6836985593
 H         -4.3943361125       -4.6207587200       -0.0546680957
 O          3.4511382699        1.3049140156        4.8134648740
 H          2.8251893428        0.6446508541        5.1544003451
 H          4.2797420990        0.8342162838        4.6703387526
 O          1.8279558359        5.0238332170       -2.1187635117
 H          2.3952575349        5.4517683146       -1.4452801063
 H          2.4241384908        4.5065247783       -2.6905100246
 O         -0.5062715516        2.4152937166        2.1402355102
 H         -0.2405693167        3.3525836334        2.1886780647
 H          0.2603251355        1.8726579519        2.4058205003
 O         -2.3085199545        1.8771344243        0.2629515795
 H         -1.4805973282        2.1150019294        0.7193277978
 H         -2.9612933977        2.4978542961        0.6446537091
 O         -2.1492095455       -0.5151665097        1.5064052590
 H         -2.8209516892       -0.3778140946        2.2041447603
 H         -2.2274097709        0.2736611514        0.9346143028
 O          1.1333789677       -2.3412907665        1.2173380094
 H          0.3690894272       -2.8072331649        0.8421757429
 H          0.7685522723       -1.8803340613        2.0056855427
 O         -5.0728739977        4.2038051896       -3.0292602039
 H         -5.7413866081        4.8148535209       -3.3367821571
 H         -5.5044325650        3.6033555726       -2.3764687573
 O          5.8960894970       -3.5335275767       -1.1476522420
 H          6.7730914785       -3.2441521235       -0.8558848606
 H          5.4629222310       -3.8916628683       -0.3538826035
 O         -6.0139355476        2.3612960902       -1.3563817728
 H         -5.1944241833        1.8192247848       -1.5309785808
 H         -6.0319045908        2.4538541556       -0.3854945997
 O         -4.4319935096       -0.1344437435       -4.9703913533
 H         -4.7744703718       -0.6498867981       -4.2044850925
 H         -4.7757949763       -0.5484653511       -5.7616377755
 O          7.6884668081        2.3021587676        0.3437736373
 H          7.1509443115        1.7476763587       -0.2558346765
 H          8.5897711112        1.9888097587        0.2533376975
 O          3.7475094703        1.6279455053        1.1127204909
 H          4.5582180676        1.6182401681        1.6543918873
 H          3.9969818242        1.9827538220        0.2309560997
 O         -0.5071128102        1.4353598677        5.3565731601
 H         -1.2224381405        0.8181476561        5.5500079444
 H          0.2964394100        0.8960259400        5.3787912751
 O         -5.2466614722       -1.5426142809       -2.8648192510
 H         -5.7082690026       -2.3969325193       -2.7419415002
 H         -5.7759387362       -0.9037483041       -2.3441688457
 O         -4.3600914682       -4.9863028069       -3.0650875166
 H         -3.7423072003       -4.4310435321       -3.5605968169
 H         -3.9697921680       -5.0520224002       -2.1727670661
 O          5.0364457941       -4.3637382112        1.3614999959
 H          4.2341502466       -4.2060609806        1.8889788044
 H          5.6986809336       -3.7567384007        1.7329451367
 O          4.5038897218        2.7545690339       -1.1438002791
 H          4.9922002378        3.4847898084       -0.7175251318
 H          5.1431116984        2.0326277908       -1.3162765915
 O          2.9340226326       -2.6191615385       -0.8491284147
 H          2.5722658455       -2.5979137665       -1.7465020315
 H          2.9289090743       -3.5644186964       -0.6006941009
 O         -0.2416897238        4.8151214512       -4.0527593878
 H          0.5004788838        5.0442165520       -3.4805100002
 H         -1.0397236905        4.9562722555       -3.5246518693
 O          6.6380105669       -2.1747234973        1.9377993396
 H          7.4410084832       -2.3768420302        1.4397703786
 H          6.0374111401       -1.7683372596        1.2743062418
 O          2.9118454247        3.8974889437        4.1016291265
 H          3.1308098625        3.0067188239        4.4256578797
 H          2.5301137876        3.7983000351        3.2053061874
 O         -8.6696457744       -2.2139201955       -1.5410509793
 H         -9.4965727052       -2.6329163461       -1.7800571002
 H         -7.9566340109       -2.8067319710       -1.8448549680
 O         -3.8298832281        3.6754802523        1.5718117952
 H         -4.6897132964        3.2213357703        1.5434101165
 H         -3.4631926651        3.4867798290        2.4549024725
 O          4.3095767005        1.2563279507       -5.0906600003
 H          3.9903231977        2.0179102056       -4.5401202904
 H          4.4706136792        1.6066428391       -5.9664675552
 O         -2.5753223530        2.6927470132        3.7511822212
 H         -2.2531327542        3.0274070007        4.5897217127
 H         -1.7640295979        2.5046286005        3.2130411567
 O         -1.1156450158       -5.9055241396       -0.6670921341
 H         -0.7945572035       -5.1554597432       -1.1994405738
 H         -2.0132479253       -5.6490007353       -0.4123396592
 O         -7.9769600248        0.6703920704        2.4536904099
 H         -8.8194353596        0.9315892452        2.8244982707
 H         -8.1460146356       -0.1500469871        1.9298294832
 O         -6.1477363277       -0.6972038999        4.0713054303
 H         -5.2829686177       -0.2635147627        3.9433842145
 H         -6.8051893083       -0.1228472744        3.6477769796
 O          6.2165283374       -0.0985342876       -3.6586454352
 H          5.6215466057        0.4417550173       -4.2083152481
 H          5.7528988367       -0.9531944787       -3.5526999197
 O          1.6955257582       -2.7987950732       -3.3229415614
 H          2.0542725245       -3.6150636896       -3.6727782043
 H          1.9931011718       -2.0868039461       -3.9329876074
 O         -3.6246181184        0.2225200022        3.6235378801
 H         -3.3719848312        1.1674605935        3.6565397266
 H         -3.1703916008       -0.1832935684        4.3850502698
 O          3.3931603845       -1.0732241180        2.5529324999
 H          3.2268933964       -2.0097825279        2.7404373950
 H          4.1534539206       -0.8128264094        3.1171939041
 O         -5.7646319558       -2.3951917259        2.1257978135
 H         -5.3988557232       -1.6800561148        1.5414773429
 H         -5.9586599023       -1.9242743528        2.9772073515
 O          0.1869385330        0.3812316626       -5.6524710744
 H         -0.2255189239        1.2571158596       -5.8422227084
 H         -0.5329928112       -0.1501350736       -5.2704173642
 O          6.0604897691        1.9083777424        2.4790774068
 H          6.7467361148        2.0271561168        1.7970926214
 H          5.8933870651        2.7859853399        2.8636046021
 O          6.1613633070        0.6672152499       -1.1908052430
 H          6.1038093677        0.4033517915       -2.1538675164
 H          5.6187288391        0.0148972265       -0.6887022659
 O          3.3093099184        5.7063293571        0.0240364461
 H          4.2615185276        5.5804383248       -0.0131949473
 H          2.9683231534        5.0268047558        0.6371219971
 O          3.3059255001        3.1485382876       -3.5178645654
 H          3.7486833624        2.9723831013       -2.6637742477
 H          2.4819388790        2.6086644336       -3.5098611680
 O          2.8919290370       -5.2468833893       -0.3188457478
 H          2.1749248158       -5.6420966201        0.2060308869
 H          3.7005198570       -5.3387643974        0.1959587877
 O         -1.6315886076       -3.0864815334        4.4631330827
 H         -2.3897537672       -3.2931140899        3.8611116418
 H         -1.0086661535       -3.8082342801        4.2942421028
 O          2.7415061135       -3.7557513355        2.7154547490
 H          2.1406859671       -4.2918650739        3.2389017877
 H          2.1738533712       -3.3886756417        1.9954640905
 O          3.4272440355        0.1066596599       -2.3039733456
 H          3.7201645392       -0.7287473234       -2.6945674841
 H          2.7562744275        0.4968755163       -2.8841940004
 O          8.3856690745       -2.6609045027       -0.1555098117
 H          8.5712167287       -1.7914313609       -0.5766851515
 H          9.1723962968       -3.1963395428       -0.2559004917
 O         -0.1057803949        5.0896234860        2.5505248949
 H         -0.0940309220        4.8608818430        3.5075105722
 H          0.7672443780        5.4303047059        2.3433984578
 O         -2.2652416774       -3.4441462455       -4.1309901185
 H         -2.1514846952       -2.4670084920       -4.2402081169
 H         -1.8871832831       -3.8552403042       -4.9082326362
 O         -0.6487763974       -3.5519501020       -1.9404845272
 H          0.1902357353       -3.3224393644       -2.3667612852
 H         -1.3131259817       -3.5646240937       -2.6541717898
 O         -5.8428968301        1.9370627859        1.3171320974
 H         -6.6548659860        1.6573228077        1.7683187708
 H         -5.3402833309        1.1122278983        1.1733920682
 O          5.3421816455        4.4495218661        3.1664715363
 H          4.4294799726        4.3392776055        3.5359776092
 H          5.7719373200        5.1168742557        3.7012589025
 O         -8.2901133254       -1.6422922096        1.1903525052
 H         -8.4165980282       -1.8466442876        0.2515528970
 H         -7.4660946376       -2.0736152621        1.4717301424
 O          0.3042634491        3.6794440890       -0.4328310489
 H          0.8445032553        4.2087184979       -1.0719414380
 H         -0.4358587250        4.2535525851       -0.1521648309
 O          2.1784028842        3.7072225069        1.5190988978
 H          1.4414600523        3.6227945017        0.8794194594
 H          2.7153611480        2.8908990084        1.4069949692
 O          2.5376042893       -0.9323202425       -5.0433005068
 H          1.7480211759       -0.5467675588       -5.4530353672
 H          3.2102610689       -0.2316376966       -5.0575725836
 O          5.6304130934       -0.4008719411        3.8201049695
 H          6.1394214238       -1.1111334728        3.3942576897
 H          5.9220643408        0.4178097646        3.3806097119
 O         -6.5220286846       -3.8021452901       -2.1206622252
 H         -6.4048047296       -4.0547877914       -1.1901959527
 H         -5.8652602495       -4.3560117654       -2.6071004318
 O         -3.3892993311        2.2792372253       -4.1365908998
 H         -3.8926007198        1.6161706128       -4.6293523975
 H         -3.9791236921        3.0278349817       -3.9550620521
 O          4.7097166581       -2.2665216629       -3.1317310349
 H          5.0963658689       -2.7238879424       -2.3439052112
 H          4.6847735506       -2.9132270519       -3.8357097222
 O          5.8795414977        4.4700268014        0.4290746845
 H          6.7219959300        4.0002091672        0.3810880150
 H          5.6482322765        4.5169511680        1.3729397290
 O         -1.8342389514        5.1432855837        0.4047397185
 H         -1.3433774038        5.4415617616        1.1840082275
 H         -2.6202751062        4.6977407395        0.7618504554
 O          0.2319030377        4.0706175501        4.9778855871
 H          1.2004358037        4.0894610233        4.9655239176
 H         -0.0221397119        3.1500114427        5.1554328977
 O         -2.4246145700        4.6800826492       -2.3153908990
 H         -2.3010874829        5.0143343190       -1.4173652547
 H         -3.3734545325        4.6725463567       -2.5010887897
 O         -4.9374516532       -0.5010816317        0.5391974361
 H         -4.1970374176       -0.8928747798        0.0250881430
 H         -5.6694766730       -0.4147546657       -0.0981396398
 O         -6.8869522254       -0.1440616485       -1.3002782371
 H         -7.7674275463       -0.5175366737       -1.4146681450
 H         -6.9011663699        0.8247434075       -1.4229699363
 O         -6.0863094443       -4.5154933216        0.5437251672
 H         -6.0157741530       -3.7870329169        1.1943839999
 H         -6.4394062494       -5.2731055005        1.0097916106
 O          0.7936545964       -6.4425072269        1.0497434740
 H          0.0583685218       -6.2588332223        0.4067341966
 H          0.8840419470       -7.3947217525        1.0824311076
 O          4.8179851836       -1.1077091309        0.2653035600
 H          4.2978743927       -1.7500129943       -0.2629032889
 H          4.2661170830       -0.9408221297        1.0565946245
 O         -3.2872377046       -1.8442837123       -1.0698588738
 H         -3.9094381725       -1.7275508816       -1.8192255660
 H         -2.5379011414       -1.2563472962       -1.2602463484
 O         -1.2751044800       -0.3016629995       -1.8134847016
 H         -0.3772019592       -0.5208443862       -1.4471219986
 H         -1.2385315070        0.6693804498       -1.8803292060
 O          1.0744196645       -0.4874785346       -0.7649502085
 H          1.9158050924       -0.2589002926       -1.1825012545
 H          1.2968267877       -1.1272849778       -0.0704474448
 O          9.3192931259       -0.0526526470        1.3237205282
 H          8.5240781500       -0.4690445959        1.6664989793
 H          9.3128371967       -0.1888402616        0.3696858418
