  249
       -422.56543453
 O          8.6746497230       -1.0105673753       -0.1942781831
 H          9.5608421750       -1.3738754061       -0.2123668202
 H          8.1549328302       -1.5456223926       -0.8394156413
 O          2.1325849114       -1.0510976736       -3.7505619821
 H          3.0683636848       -0.9542610148       -3.4822952259
 H          2.1362101587       -1.8692444898       -4.3112886503
 O          0.7569358431        2.8806399227       -4.7918659512
 H          1.2367288343        2.6058930624       -3.9827871894
 H          0.9837655051        2.1629383901       -5.4163731496
 O         -1.5390267298        0.5244750101        3.9671060855
 H         -2.1742630535       -0.1585049870        4.2566878515
 H         -1.0644503844        0.8170690827        4.7561247264
 O         -3.0528102670       -3.8593732604        4.5843062706
 H         -3.5154588461       -4.2524957578        3.8281295174
 H         -2.0972854147       -3.9146723783        4.3750474762
 O         -2.1662174771       -1.6170596867        1.8313725513
 H         -2.3453502655       -1.7788398243        2.7591723912
 H         -2.3892440054       -0.6784587059        1.6611613736
 O         -5.6665202712        1.4165966108        1.7431609728
 H         -5.5432686342        1.2376372640        0.7858072925
 H         -5.9390670450        2.3652192962        1.8023628371
 O          3.1829987452       -0.0212301591        2.4096356199
 H          4.0025448107        0.4936510574        2.3668134815
 H          2.5173141515        0.5368090654        2.8522475595
 O          0.3427714362       -1.3074469227        3.1791403768
 H          0.8165625671       -1.4246298457        4.0315237512
 H         -0.2871605078       -0.5863320970        3.3484134037
 O          7.4050985384        1.1706624159       -1.3102047474
 H          6.5637487130        0.7454487535       -1.0695689815
 H          8.0844225372        0.5729910839       -0.9656593622
 O          2.6323501647        2.1171281192       -3.0440671464
 H          3.2291376220        1.7557376668       -3.7294180011
 H          2.8087166492        1.6419288938       -2.2237543974
 O          7.1706142576        3.7361913480       -0.5096465998
 H          7.5406054979        4.2779990142       -1.2073251056
 H          7.3826668789        2.8063218751       -0.7406130582
 O          2.0778315498       -3.5539202341        1.0565783055
 H          1.6541068157       -4.3471051422        0.6514756827
 H          2.1601419726       -3.7578648012        2.0079437965
 O         -5.5011066441        0.8240805785       -0.8534328864
 H         -5.6740641083        1.7427414132       -1.1370246404
 H         -6.2004214510        0.2497428422       -1.2272510119
 O         -1.5754116055        4.0387989617       -1.7925759946
 H         -0.7969825351        3.4998243647       -1.5178669432
 H         -1.7104158675        3.8508555019       -2.7301123465
 O         -2.7719511654       -1.6040999535       -3.1651082272
 H         -3.5595322352       -1.0720950536       -3.3914635757
 H         -2.8758376219       -2.4224849405       -3.6727271171
 O         -0.7654249000        4.7356240549        2.3147570118
 H         -0.5268837455        5.2325333452        1.5061181286
 H         -1.7242189793        4.8728852664        2.4621659783
 O         -3.8922510456       -1.2630695109       -0.4014279308
 H         -4.0636808926       -1.3336290517        0.5584285499
 H         -4.3298773755       -0.4336575724       -0.6650684289
 O         -3.4624230282        4.5775398088        2.4266253933
 H         -3.5405297575        3.7917070422        2.9978906509
 H         -3.4236299525        4.2255290048        1.5135859123
 O         -1.8327100544        3.1401487583       -4.4959376313
 H         -2.0268920058        3.8273435118       -5.1345471440
 H         -0.8507201186        2.9774787677       -4.5734944079
 O         -0.6015786202       -3.4790862326       -5.0063765358
 H         -1.5163672227       -3.7719446850       -5.1013139666
 H         -0.6401725916       -2.5044548831       -5.0444873806
 O          3.7537259227       -1.9480191967        4.1207423888
 H          3.4449649679       -1.3077325488        3.4351757302
 H          3.1510400350       -2.7052284028        4.0566236485
 O          7.6352088570       -0.4845929143        2.2705658553
 H          7.9866748471       -0.6948924223        1.3813523049
 H          8.3786802288       -0.4814013054        2.8738524538
 O         -7.9207765543       -0.0315952196        2.2880470639
 H         -7.2366593527        0.6227700146        2.0572493762
 H         -7.5761566945       -0.4801469826        3.0820918934
 O          2.4222978380        4.6243402890       -1.3799009648
 H          2.3648203853        4.8668369804       -2.3281746580
 H          3.2176536657        4.0558435638       -1.3207283845
 O         -3.2941107501       -3.9467754046       -4.5707722022
 H         -4.1208455469       -3.9964177739       -5.0508715822
 H         -3.4099805525       -4.4492426005       -3.7386036913
 O          0.5787574516        2.7268113008       -1.0535475643
 H          0.6811015008        2.0800448953       -1.7630790066
 H          1.2965361428        3.3929879780       -1.1658715959
 O          5.9325780333        2.5725654308       -3.2825888066
 H          5.2822997660        2.7396536493       -2.5832666480
 H          6.6387565742        2.0710693812       -2.8575670478
 O         -0.5639591062       -3.7572104404        3.5273597189
 H         -0.3349894403       -2.8109985286        3.3530603849
 H         -0.9005750133       -4.1257587944        2.6846482173
 O         -2.5916339031        0.9258883378        1.0180116237
 H         -1.7672237617        1.3742800038        1.3121784405
 H         -2.4303396494        0.6606032494        0.0937586791
 O         -6.6951696484       -1.0542396771        4.5022605615
 H         -6.1239938987       -0.3390647448        4.8437387315
 H         -7.2389487399       -1.3487469315        5.2321555546
 O          3.1961261521        5.2317295776        1.3317480282
 H          3.0991082560        5.5170714131        0.4177745122
 H          4.1240756342        4.9648417553        1.4691772516
 O          4.9307275513       -3.4586455080       -2.1271579767
 H          4.1971755438       -4.0327333896       -2.3999532086
 H          4.7817957075       -3.2483507777       -1.1796350837
 O         -1.9831413079       -3.1864386001       -0.7976931236
 H         -2.4178480136       -3.8080742848       -1.3988164751
 H         -2.5921876564       -2.4394270873       -0.6783898589
 O          3.3377389344        0.6234891576        5.5171320773
 H          3.6140357209        1.3517726801        4.9467626827
 H          3.7421897860       -0.1725094032        5.1546290671
 O          5.5831195590        1.2476559327        1.7322154211
 H          6.3251419493        0.7655566546        2.1255565231
 H          5.4580257255        0.8356465260        0.8559518536
 O         -0.3877876627        2.2861772968        1.4407979310
 H          0.0366707511        2.4306359858        0.5768954908
 H         -0.5701897712        3.1891721937        1.8027646894
 O         -0.1219830775       -1.9736632428       -2.3462895663
 H         -0.9930717150       -1.8138210738       -2.7427236837
 H          0.5499190032       -1.6541254014       -2.9664729764
 O         -3.6701260782       -4.9595371419       -2.1182313652
 H         -4.4053479301       -4.3544076195       -1.8233666255
 H         -3.8717103375       -5.8369265945       -1.7956303602
 O          1.7234669538        0.6097333351       -5.8923385223
 H          2.6028500932        0.8519676667       -6.1951897134
 H          1.8880320522        0.0480205735       -5.1050248259
 O         -5.4049095922       -3.1962488697       -1.2965395557
 H         -4.7694623659       -2.4645748985       -1.0829267444
 H         -5.7918154044       -3.4081623785       -0.4191688765
 O          2.4346516309        4.9946304322       -4.0493530786
 H          3.2954634069        4.6921970924       -4.3453711309
 H          1.7844071010        4.4006498464       -4.4580431347
 O          2.7395975421       -4.9497644699       -2.9057291752
 H          2.9117257373       -5.8897442651       -2.8504944514
 H          1.7865671762       -4.8259936374       -2.6694650631
 O         -1.7417777387       -4.7238428339        1.3252018710
 H         -1.8500620416       -4.0704165672        0.5942392372
 H         -2.6340669089       -4.9048358389        1.6496812447
 O          5.0974728414       -0.1179510610       -0.5707022221
 H          4.9701397843       -1.0197097420       -0.1942088353
 H          4.1953611266        0.2689714589       -0.6338261843
 O          5.8656896691       -2.6541695734        2.6002057853
 H          5.1695826953       -2.4504665360        3.2625779671
 H          6.4710836110       -1.8994483678        2.5993924288
 O          7.4182236241       -2.2806061478       -2.1622220674
 H          6.6818691240       -2.9089564768       -2.0984095917
 H          7.2171558826       -1.7141187521       -2.9110799410
 O         -7.0672518950       -1.0874794344       -1.8857071741
 H         -6.5311519120       -1.9020880921       -1.8782964898
 H         -7.7074197990       -1.2316303825       -1.1670012578
 O          1.2509275050       -1.5714283272        5.6537373459
 H          0.9429583968       -0.6825889785        5.9119538611
 H          2.2093266574       -1.5497248462        5.7236464695
 O         -4.9548219819        0.7934325858        5.4943263978
 H         -5.2144184764        1.4103230760        6.1777909382
 H         -4.5198126491        1.3339761248        4.7860500385
 O         -6.1784749075        4.0037785190        1.7187601434
 H         -6.2568698898        4.1401610305        0.7666345022
 H         -5.3815370871        4.4708352564        2.0154158272
 O          4.3491235418        1.1112713130       -4.8825594261
 H          4.5829844600        0.2432779126       -4.5250259744
 H          5.0406351855        1.7138062460       -4.5480266765
 O         -0.6556161059       -0.7134635588       -5.1207673993
 H         -0.0246939855       -0.4256152712       -5.7901088697
 H         -1.5237366285       -0.3092859291       -5.3553562881
 O          2.8878830946        2.5691366394        1.1962696152
 H          3.2810216258        2.4570805143        2.0809251910
 H          2.6241008208        3.5040542121        1.1624626662
 O          0.1532589705        0.7904507576       -3.0433342238
 H         -0.2285186128        0.3448897582       -3.8300331599
 H          1.0240137295        0.3825616592       -2.9533014236
 O         -2.0406423627        0.5365042616       -1.5787012336
 H         -1.2145074860        0.7005424903       -2.0770145011
 H         -2.3689555557       -0.3170328275       -1.8974436687
 O          1.6736281212        4.4236261759        3.5139422375
 H          2.1607331963        4.9119340580        2.8332108312
 H          0.7395220277        4.6208517289        3.3315358384
 O          3.9490823072        2.8276971350        3.7647750212
 H          4.7461135193        3.3233971471        3.5544250930
 H          3.2820097860        3.4797791540        4.0181166712
 O         -8.4117984910       -1.7807128319        0.4224760189
 H         -9.3572809392       -1.9267975553        0.4357219506
 H         -8.2349632732       -1.0780596234        1.1104004359
 O         -3.7123147478        2.0748995966        3.5280359523
 H         -2.8549042108        1.6066087291        3.5075076755
 H         -4.2419452331        1.7418445148        2.7777158499
 O         -4.9002845454       -1.1966602523        2.1188149433
 H         -5.2838497354       -0.3088411193        2.1063102941
 H         -4.4653542581       -1.2894892953        2.9869428525
 O          4.5337844083       -2.5759714498        0.3558867473
 H          3.6619591871       -2.9427569041        0.5995499114
 H          5.0966024563       -2.6900857091        1.1661585844
 O         -3.4511857504       -1.3119111295        4.4217471482
 H         -3.3559481225       -2.2786383768        4.6409391752
 H         -4.0013442219       -0.8975385568        5.0954645524
 O          2.1628584180       -3.3047484528       -5.0827502513
 H          2.5017013468       -3.9540540500       -4.4468888532
 H          1.2364245458       -3.5318425215       -5.2479410515
 O          0.5900943919       -5.4929622847        0.0397313629
 H          0.3365291626       -5.3039842895       -0.8745787864
 H         -0.2260334627       -5.4276246974        0.5586679475
 O         -6.2726434039       -3.2945352651        1.2305311654
 H         -7.1672616967       -2.9643567858        1.0394278428
 H         -5.8098949883       -2.5141485172        1.6135457922
 O          1.2900169005        1.6931855163        3.4187003029
 H          1.5077484773        2.6308718684        3.5599977565
 H          0.5867709306        1.7208131702        2.7399861525
 O          4.7557735360       -1.0099913846       -3.1334525656
 H          4.9804240493       -0.5727825465       -2.2929936147
 H          4.8150259225       -1.9708383023       -2.9312035643
 O          5.6284558458        3.9794426510        1.7802125202
 H          6.3746920363        4.2235920853        1.2230803811
 H          5.6121030811        3.0009510316        1.7633291617
 O          0.1372863148       -4.5845184447       -2.5602545494
 H          0.0130289251       -3.6331802276       -2.3260597205
 H         -0.1910726683       -4.6205932547       -3.4698566988
 O         -4.9184279759       -0.0618256571       -3.7493459706
 H         -5.7590162158       -0.3502981929       -3.3802517839
 H         -4.6980233595        0.7947936065       -3.3173799444
 O         -4.3727615864       -4.9546420451        2.3249822574
 H         -4.8066770905       -5.7466697884        2.6435940298
 H         -5.0713592780       -4.3864498948        1.9514933794
 O         -3.3948071750        3.3483061620        0.0515450924
 H         -3.2000638486        2.4412807437        0.3633296129
 H         -2.7327574301        3.5899582987       -0.6282456502
 O          2.0663465667       -4.1481302617        3.6935543828
 H          2.3111597796       -4.9485453705        4.1563034352
 H          1.0886969052       -4.0458546282        3.7908928738
 O         -2.8450032262        0.6855437167       -5.5604744226
 H         -3.6560253071        0.4066473045       -5.1159853893
 H         -2.5910756781        1.5434111560       -5.1873824915
 O          4.5395164638        2.9961537410       -0.8940896075
 H          5.3866428436        3.3870890208       -0.6214795790
 H          4.0778371691        2.7268946854       -0.0741290882
 O         -3.8451107166        2.1694336599       -2.7576197818
 H         -3.2302856722        1.6583797120       -2.1911515866
 H         -3.2863276306        2.6078426887       -3.4071005370
 O         -5.7791649727        3.5023312703       -1.0954189949
 H         -4.8719195166        3.5040624505       -0.7075451516
 H         -5.6742527761        3.7830341192       -2.0046918313
 O          0.4600163452        1.0329888756        5.8639216821
 H          1.0869377282        1.3502421953        6.5158720944
 H          0.8778071470        1.2339424054        4.9936034298
 O         -0.0324488588        5.6965597444       -0.1030479575
 H         -0.6888498327        5.3864773915       -0.7416186005
 H          0.8309655539        5.4933136956       -0.4794125424
 O          2.6190049051        0.6504948794       -0.7530092788
 H          2.5442890606        1.2863463272       -0.0246798294
 H          1.9150273808       -0.0067728743       -0.5056669172
 O          0.5927815674       -0.7167979596        0.1685294039
 H          0.6256536396       -1.0453879388        1.0751332910
 H          0.1461374121       -1.3900918780       -0.3565881307
 O          4.1835811534       -5.7371656389        0.4591470915
 H          4.5833508322       -4.9645013161        0.8667676983
 H          3.2369876002       -5.5657188188        0.4299550654
