  136
       -229.31316946
 H         -0.2744506862        1.1356136289        0.3057434140
 O          0.5674450196        0.6644437755       -0.0303764657
 H          0.5050104151        0.6118147534       -1.0560642242
 H          0.6650273434       -0.2785496778        0.3827971980
 O          0.1878656245        3.8957010592       -3.0467859204
 H          1.0766234824        3.5404753821       -3.1333984370
 H         -0.3873527213        3.3201045688       -3.5723204497
 O          2.1048864691       -3.6908253398       -3.8044359434
 H          3.0428231350       -3.5030704060       -3.5300684248
 H          2.1280735534       -4.5233045197       -4.2750903867
 O          0.6236815091       -0.9955677527        4.5799337347
 H          1.5161703594       -0.8131647994        4.2484552263
 H          0.3558543564       -0.2458751921        5.1500774612
 O         -0.1198138088       -3.0719761589        2.9664800095
 H         -1.0546376681       -3.2769475865        3.1227798938
 H          0.1599326489       -2.5066205147        3.7041159287
 O         -4.0787255550        1.5595995511        1.3746044600
 H         -4.3529179769        2.4637503332        1.1739450060
 H         -3.1437578276        1.5340351283        1.0850277949
 O         -2.1775695269       -1.6148874963        1.1342310091
 H         -2.4940755881       -2.1913803020        1.8550204931
 H         -1.6286010634       -0.9377941496        1.5894543941
 O          0.9572548867       -1.9707398979       -1.9717321645
 H          1.2897047321       -2.6534588970       -2.5732749814
 H          0.2637713361       -2.3836787391       -1.4211015909
 O          1.2956461703       -1.2083653967       -4.7436320347
 H          0.3621628873       -1.3102810875       -4.4774788656
 H          1.6374958189       -2.1140222539       -4.7588645626
 O          3.0590727830       -0.8279390591       -0.8733733065
 H          2.1835260150       -1.2137932874       -1.0970784951
 H          3.5669715712       -1.6097858455       -0.5684380008
 O         -2.7918023517       -1.1278231000        5.1691360593
 H         -2.9576467277       -0.2521315339        4.7669468645
 H         -2.0510525911       -1.0165979262        5.7692653551
 O          2.5954154622        2.0559155218       -3.4363779326
 H          2.1694792736        2.0598299741       -4.3262980992
 H          3.2395449739        1.3114172038       -3.4867136084
 O          1.1680689702        1.8865146902        2.2770734915
 H          0.9927520720        2.6727102054        1.7215518601
 H          1.9968289580        1.5167604100        1.9070474306
 O          0.5358026036        3.3600739794        4.4123809637
 H          0.9422288620        2.7459563631        3.7692526483
 H          1.0142038178        4.1913115370        4.2841927212
 O         -2.9163499488       -3.3933451922       -2.4786002662
 H         -3.5066190474       -2.6046307656       -2.4638600759
 H         -3.4730332376       -4.1535463312       -2.6463542243
 O         -1.2324299808       -1.5835916475       -3.7405785148
 H         -1.3409632853       -1.1059107503       -2.8899301986
 H         -1.6091556132       -2.4555647788       -3.5755006846
 O         -3.3976757532        4.1811453264        0.6716246392
 H         -2.7232106322        4.4457257570        0.0322958461
 H         -2.9861445347        4.3103258067        1.5351054311
 O         -1.7361242907       -0.3186241401       -1.3891443015
 H         -2.2537647206        0.4941688917       -1.4668034863
 H         -2.0553347726       -0.7854977120       -0.6114685634
 O          1.7481960149        5.3328165304        2.9843175759
 H          1.4964653714        4.9495570447        2.1270919181
 H          1.9069018660        6.2658059319        2.8454661286
 O          1.0487048613       -1.5745433718        1.0196838999
 H          0.4563577974       -2.1364977728        1.5486341481
 H          1.7509199885       -1.3044419454        1.6521921501
 O          0.9929499058        4.0066487300        0.6533061793
 H          1.6837696840        3.7726489295        0.0122879852
 H          0.2035757791        4.2790301025        0.1480333016
 O         -0.9175759369       -3.3075931477       -0.5918511509
 H         -1.3079248426       -2.7444830836        0.1030955994
 H         -1.6221245658       -3.4405145325       -1.2491577445
 O          2.0197111307       -4.6813332133        2.4056000792
 H          1.8760539447       -4.7906138247        1.4515550853
 H          1.2377281799       -4.1989515571        2.7247121825
 O         -1.4908277725        1.9525972378        0.6579793998
 H         -1.8064660842        2.3828672941       -0.1575216504
 H         -1.4139412343        2.6355691987        1.3695853973
 O         -0.7419175750        0.0928986873        2.5858028326
 H         -0.0794861695        0.8036457300        2.4177060583
 H         -0.3335537747       -0.4312481887        3.3089914390
 O         -1.0926789144        4.7722276564       -0.9020959853
 H         -1.1282437119        5.7230187723       -1.0163477544
 H         -0.6705973862        4.4200440718       -1.7202220339
 O         -1.6295824415        3.5156725823        2.7951189374
 H         -0.8381647886        3.6320118184        3.3618704686
 H         -2.1923454619        2.9009261249        3.2952072907
 O          0.5646792274        0.5963014473       -2.5365352347
 H          1.3595337005        1.0934698227       -2.8391302563
 H          0.7296761273       -0.3629008380       -2.6409780598
 O          4.5140878309       -3.0353104409       -3.0056478461
 H          4.5873947865       -2.0906495752       -3.2118109715
 H          4.5711512254       -3.1275400469       -2.0436080336
 O         -2.7188414080        2.2887218489       -1.6995700323
 H         -2.2791498392        2.3184690784       -2.5765570809
 H         -3.4904806623        2.8539742884       -1.7339602223
 O          3.3541440383        1.1152008569        0.9450447824
 H          3.4102312210        1.9153231474        0.4056525558
 H          3.2260242718        0.3926078423        0.2940501327
 O          1.5166554490       -4.5817008639       -0.3123516706
 H          1.4449596530       -5.3561503763       -0.8707159546
 H          0.6524899171       -4.1305763554       -0.3347163450
 O          3.0749541412        3.1919030085       -0.9890955031
 H          2.9181361418        2.7890855532       -1.8622654183
 H          3.8176047375        3.7877903300       -1.0942658303
 O          2.8480300658       -0.8435514812        2.8766273280
 H          3.3271113295       -0.1162800011        2.4606019788
 H          3.4275721873       -1.6288160037        2.8333891203
 O         -0.5425763811        1.1703353356        5.6799391339
 H         -0.0575278383        1.9913828851        5.5041658919
 H         -1.4360499857        1.3385495828        5.3624907381
 O          4.1477229601       -3.1797919936        2.5003565371
 H          3.3503432972       -3.7823722550        2.5407882177
 H          4.8165202167       -3.5761954459        3.0587398594
 O         -2.8176944049        1.2125654611        3.7842141316
 H         -2.0555189567        0.8118732944        3.2944625356
 H         -3.5373576090        1.2625615568        3.1326814528
 O         -3.2106238399        0.0566159029       -4.5813271981
 H         -3.8000102014       -0.1936002381       -3.8550572671
 H         -2.5382587322       -0.6467860732       -4.5989607591
 O          3.9821740772       -3.2147945234       -0.2356864851
 H          4.2250512770       -3.2213068725        0.7066461379
 H          3.1419777563       -3.6998753688       -0.2926493187
 O          1.0662513341        1.5113118196       -5.5129490939
 H          1.1704476338        0.5488780824       -5.5240447573
 H          0.1312396110        1.6881913923       -5.3461504293
 O         -4.5882314441       -0.7631841969        0.0977725820
 H         -4.6516009965        0.1181570351        0.5070970270
 H         -3.8185440581       -1.1788450562        0.5188475556
 O         -2.8216948295       -3.0244501026        3.3426979185
 H         -3.5264557343       -3.6391159957        3.5468293037
 H         -2.8355403869       -2.3368498167        4.0560136796
 O          3.6738455882       -0.3581800868       -3.4189949169
 H          2.9084519319       -0.6943432516       -3.9134079061
 H          3.4846010145       -0.5001768977       -2.4627779988
 O         -1.3673651390        1.8412728708       -3.9716793792
 H         -0.7764310704        1.2443806113       -3.4695017564
 H         -2.0951170838        1.2729088453       -4.3201668637
 O         -4.5567630863       -1.2444341334       -2.4723531939
 H         -5.4688172149       -1.4076521353       -2.7157991537
 H         -4.5728891453       -0.9919180240       -1.5124225130
