  84
       -142.51431851
 O          2.7570595779        0.3478062878       -2.0729763053
 H          3.6193475148        0.6573448474       -1.7036603176
 H          2.1609151851        0.3111747594       -1.2971117629
 O          2.9757788421       -2.2160979671       -2.6381895095
 H          2.8959243618       -1.2381818252       -2.4710695299
 H          3.4509321992       -2.3095185964       -3.4633773947
 O         -2.1296682435       -3.5686512096       -0.4489837581
 H         -1.2423296608       -3.5122192506       -0.8220258347
 H         -2.6776325307       -2.9306422112       -0.9378717111
 O         -0.9349359272       -1.5157983798       -3.1953019311
 H         -0.3928410564       -2.0015016892       -2.5292843154
 H         -0.9242853848       -2.0460498085       -3.9923483015
 O         -3.2959074586       -1.3534927936       -1.7419783914
 H         -2.9220123115       -0.9614460433       -0.8891332592
 H         -2.5754105830       -1.2971190976       -2.3883446022
 O          1.1509001601        2.3413736850       -3.1255847443
 H          0.9113967280        2.8412218789       -2.3344697387
 H          1.7877250674        1.6571817693       -2.8506724042
 O          3.9240769256       -3.0442850665       -0.1746227462
 H          3.0949648254       -2.9230969223        0.3232507502
 H          3.6946731905       -2.8350092031       -1.0964103961
 O          4.9076758687        1.1055344701       -0.7293039985
 H          4.5969435709        1.7877373212       -0.1164934565
 H          5.1066649514        0.3316879282       -0.1731034923
 O          1.6092542015       -2.1829164253        0.9580086491
 H          1.1317121722       -2.3330418823        1.7941615460
 H          1.6883834988       -1.2176313992        0.8668658553
 O          0.0452053583       -2.3988390493        3.1952302000
 H          0.2458174047       -3.0398187456        3.8777428295
 H         -0.8537705455       -2.6461846631        2.8503735451
 O         -4.8257171158        0.8319039862       -1.5969905284
 H         -4.3296512212       -0.0153984700       -1.7223205656
 H         -5.5026780717        0.8561464443       -2.2730891204
 O         -2.2899140155       -3.1595969281        2.2519226167
 H         -3.0818704512       -2.6164535816        2.3682976102
 H         -2.2563696568       -3.3933886908        1.3018764001
 O         -2.9438351199        2.5631668537        1.3189491263
 H         -2.1327760618        2.5143751879        1.8462614477
 H         -2.6928180086        2.7678656801        0.4085897467
 O         -4.6117730285       -1.4913221138        2.1942525149
 H         -5.3393767914       -2.0754589177        1.9783530377
 H         -4.9042635160       -0.5913017763        1.9230667109
 O         -0.6005384834        2.3727298510        2.9349478621
 H         -0.7564328058        2.8750168326        3.7352874352
 H         -0.1296460149        1.5441121780        3.2242247627
 O          0.7853595885        0.2549390605        3.6611068041
 H          1.6427914888        0.2547968976        3.1986307621
 H          0.4500395012       -0.6530177847        3.5777673652
 O          3.0910057508        0.2502133773        2.1791572297
 H          3.7944367526       -0.3370967351        1.8617922891
 H          3.3911257675        1.1420518224        1.9582258718
 O          3.8105203499        2.8077302196        1.2311362506
 H          4.1796514063        3.5948113062        1.6316366713
 H          2.8564997105        2.9756097709        1.0955487905
 O          1.1466143897        2.9971877260        0.9920978470
 H          0.6617331795        3.4118013507        0.2601203061
 H          0.5117140763        2.8869438495        1.7283174587
 O         -2.5305275083        2.4232602398       -1.5229066152
 H         -2.1117544400        1.9892544859       -2.3068305514
 H         -3.4225385606        2.0410664879       -1.5026052648
 O         -5.2664065846        0.9315306411        1.1871951487
 H         -5.2262980428        0.8784219579        0.2182494501
 H         -4.6020038767        1.5926461451        1.4302646681
 O         -1.2899884197        1.2656184776       -3.5668827881
 H         -0.3963961695        1.6675057487       -3.5583885264
 H         -1.1517356864        0.3130297846       -3.4795075662
 O         -0.2947693986        3.9027335752       -1.1551727814
 H         -0.3540904865        4.7152205668       -1.6585660585
 H         -1.1439430411        3.4380653291       -1.2879416554
 O          0.5609661059       -2.8815526365       -1.4555297334
 H          1.3883442803       -2.8581001383       -1.9621562701
 H          0.8365647289       -2.6367800100       -0.5476210177
 O          5.2035297262       -1.0642434614        0.9455309084
 H          6.0253586229       -1.3951024832        1.3068076240
 H          4.7656522929       -1.8372243277        0.4915390076
 O         -1.7376864210        0.0747614934        0.2126640272
 H         -1.8443117936        0.0565557037        1.1872965249
 H         -2.0240095438        0.9560547163       -0.0613286270
 O          1.0370372226        0.3383393036        0.0211437454
 H          1.1687286346        1.1991165523        0.4510322293
 H          0.0752530834        0.1752357586       -0.0006347226
 O         -2.0451512315       -0.0296552254        2.9311630593
 H         -2.9375179686       -0.3460658875        3.0898221746
 H         -1.4372012840       -0.6395028556        3.3552209758
