  99
       -167.97092238
 O         -6.1477749186       -0.2851146020        2.8378580617
 H         -6.1016024717        0.6731791508        2.5907931980
 H         -6.8723271629       -0.3663698608        3.4582240093
 O          3.9767213701        2.4501807911       -0.2405996713
 H          4.6797938860        2.0226548997        0.2773324470
 H          3.1978609502        2.4499820884        0.3461351760
 O         -2.8122427563        3.4407236499       -0.2114919813
 H         -2.4404659337        3.2096681668       -1.0932736104
 H         -2.1173112857        3.9803374092        0.2069706406
 O          2.3015837929       -2.3204729512       -3.1474140142
 H          3.2139773237       -2.1996759906       -2.8508000773
 H          1.9624221710       -1.4121213984       -3.2902993831
 O          2.0172843973        2.4815887078        1.6585739904
 H          1.1674209114        2.0056314163        1.5529616204
 H          1.7752440230        3.3876107302        1.8676616688
 O          1.6449846910        0.2981826847       -3.2492571411
 H          2.4902636422        0.7644822291       -3.2855982565
 H          1.3574684200        0.3545642065       -2.3109226350
 O         -0.4017938664        4.0661293795        0.9329575226
 H          0.0853673798        3.8711485580        0.1123911388
 H         -0.5255894776        3.2105040741        1.3624381629
 O         -1.0352005853        0.5436600213       -3.8899527488
 H         -1.1884475549       -0.3802798234       -4.1567638554
 H         -0.0697015937        0.6114850998       -3.8561292455
 O          1.0174052316        3.0626899830       -1.2066436207
 H          1.9320616406        3.2892895538       -1.3826177713
 H          1.0107242037        2.1162472820       -0.9537324767
 O          3.4806776390        0.3480899835        2.5380074563
 H          2.9825793826        1.1662111015        2.3562472641
 H          4.4006446923        0.5610602198        2.3133151470
 O          1.0835204351       -3.9441120606       -1.3700966803
 H          1.3086295101       -3.6068367288       -0.4936883280
 H          1.5593425712       -3.3965338294       -2.0296552760
 O         -1.5219892129        2.8786299905       -2.4759039297
 H         -0.6043810623        3.0279095096       -2.2094607702
 H         -1.5117445155        2.0839958848       -3.0332448383
 O         -1.4100448205       -3.1882474388       -1.7696964837
 H         -1.3931015202       -2.3590980631       -1.2572959656
 H         -0.5053562004       -3.5728811066       -1.6594539180
 O         -0.8467250968       -2.1719258197       -4.2564958149
 H         -1.1838930065       -2.5946902096       -3.4449548796
 H          0.0888115649       -2.3881929857       -4.2926798228
 O          1.0391912714        0.4321564758       -0.6550110309
 H          0.1937440539       -0.0135778988       -0.4629352890
 H          1.7404357826       -0.1204011086       -0.2536467889
 O         -3.0471029071        1.6835606974        1.8666719813
 H         -3.0043967126        2.3597961285        1.1615404325
 H         -3.4221330692        0.8703924497        1.4170553493
 O          0.9139526993       -0.9108726578        2.9261274969
 H          1.0798222304       -1.7225953941        2.4154386695
 H          1.7779146837       -0.5369876303        3.1324699412
 O         -5.4437318891        2.6923836923       -0.4958986962
 H         -4.5238345398        3.0050498337       -0.4314519122
 H         -5.8963754984        3.3106324407       -1.0696209964
 O         -1.0316570626       -3.9490101321        1.8928310276
 H         -1.6241064427       -4.3191193703        1.2039175645
 H         -1.4572578214       -3.1175988878        2.1706223198
 O          4.1187817129        1.3597392176       -2.6313019388
 H          4.0298275391        1.7842921572       -1.7413719122
 H          4.8425278267        1.8005579572       -3.0757416563
 O          5.8347861285        1.0881314565        1.3115713423
 H          6.6052105650        1.5679257035        1.6166667310
 H          6.1694182582        0.3888274762        0.6971994426
 O         -1.7970744143       -1.4041613681        2.4511783862
 H         -0.9718375678       -1.2282977444        2.9183332321
 H         -2.5159706924       -1.0388728297        3.0259410216
 O          1.3718701773       -3.2218895132        1.4009401950
 H          1.8870611148       -3.9221787607        1.8040669038
 H          0.4068804017       -3.5160248088        1.5189026811
 O          2.8966486622       -1.1528736437        0.4141039369
 H          3.1614310528       -0.6527407750        1.2205147844
 H          2.4025755247       -1.9317609834        0.7111395300
 O          6.7203570856       -0.7503271630       -0.3754559761
 H          7.0648777841       -1.5934294202       -0.0801911632
 H          5.9591545976       -0.9578494266       -0.9743632162
 O         -5.7478313727        2.2560061335        2.1958484503
 H         -4.7833684499        2.2480292007        2.3141630740
 H         -5.8652131167        2.3986262755        1.2399301383
 O         -2.7080194653       -4.7326031271       -0.0540598408
 H         -2.3257698048       -4.1774429228       -0.7762140438
 H         -2.6895230219       -5.6351543523       -0.3719870604
 O         -3.6420154574       -0.2040009701        3.8976067166
 H         -4.5448804840       -0.3803650588        3.5623883508
 H         -3.4352417346        0.6894628755        3.5998145252
 O          4.5121587993       -1.2002182450       -1.7684448969
 H          3.9182949440       -1.2251895228       -0.9938048813
 H          4.3680138844       -0.3246647537       -2.1769559832
 O         -0.3831125351        1.2918835398        1.7688278800
 H         -0.0646191026        0.4865198685        2.2040501457
 H         -1.3502167084        1.3454978180        1.9264339920
 O         -1.2387575664       -0.9459269850       -0.1987791596
 H         -2.0098912066       -0.4270532541       -0.4834250359
 H         -1.4088690675       -1.1295203618        0.7432634543
 O         -3.7386902868        0.0870658943       -0.2417938020
 H         -4.1378994150       -0.7945578965       -0.1078787639
 H         -4.3179485757        0.5812400865       -0.8261678153
 O         -4.6619708026       -2.3402134731        0.4845726480
 H         -4.1107084948       -3.1300146346        0.5239401121
 H         -5.0458225420       -2.1895047771        1.3522259029
