  249
       -422.57053188
 O          0.0608098442        3.5881030266       -2.0242039124
 H          0.0078782746        2.6220719350       -2.1666693610
 H          0.4103479962        3.9446458509       -2.8504701950
 O          4.3114052313       -1.7472421185       -2.3792761719
 H          4.6991105361       -2.3193371287       -3.0595058693
 H          3.4972072372       -1.3468324132       -2.7450319485
 O          7.1213526485        0.1391238013       -3.9269659626
 H          7.9431097474        0.0687527132       -4.4127147055
 H          7.3687911323        0.1648755741       -2.9762205964
 O         -6.5102208340        0.3325038974       -0.5007460113
 H         -6.6731781499        1.2840281983       -0.6355902878
 H         -7.3187451588       -0.1183179685       -0.7448024467
 O          2.2967820674        2.5070346573        3.0917887670
 H          2.6998503655        1.8280479273        3.6734783414
 H          2.0957915832        3.2744352810        3.6634882463
 O         -4.3521504375        1.5213763284        0.7179030631
 H         -4.6849884262        0.6104384837        0.8800291468
 H         -4.4345425535        1.6741855504       -0.2426804400
 O         -7.2140335546        2.8893461407       -1.0435813293
 H         -7.3695595528        2.6246928458       -1.9585943174
 H         -6.5423525955        3.5999628201       -1.0726773753
 O         -3.0017963119        3.9582182088       -2.6079912823
 H         -3.5630389011        3.2103803892       -2.3158578483
 H         -3.5611978011        4.7332197889       -2.5410105384
 O         -2.4728567044        1.6018182535        2.5816851928
 H         -1.6139717370        1.2196840049        2.3188439491
 H         -3.0449298406        1.5918869545        1.7826636665
 O          1.3052051741        4.8356033528       -0.0258957371
 H          0.8168939587        4.4374511790       -0.7764494329
 H          0.9666627951        4.3883901977        0.7695999820
 O         -2.6161463694        2.7204151425       -5.0288753115
 H         -2.9806151615        1.8628006266       -4.7541152032
 H         -2.6695565573        3.2878720756       -4.2365853665
 O          6.0436566658       -0.0930838325        4.5622754310
 H          6.7840838208       -0.1509425683        5.1669828704
 H          6.0109849080       -0.9465435831        4.0831891030
 O         -3.7386916587       -0.2326890895        4.1332369585
 H         -4.5556042016        0.1706165367        4.4636123835
 H         -3.3668331379        0.4148451858        3.5027658152
 O          5.9838814806        2.7192286204       -4.1169134623
 H          6.3825120341        1.8479761182       -4.2662636242
 H          5.0232089587        2.5896049515       -4.0532591597
 O         -2.6088358597       -3.8296160664       -3.2585799299
 H         -1.8037577509       -4.3558918467       -3.1177239686
 H         -3.0779094473       -3.8653091799       -2.4072080085
 O         -1.2730820825       -1.5163867830       -3.4576675479
 H         -0.6903195590       -1.5628039247       -2.6746971535
 H         -1.7931208210       -2.3479190045       -3.4614350686
 O         -4.9460832500       -0.9992084298        1.4274091137
 H         -5.5199191724       -1.0895234413        2.2166469164
 H         -5.4575718006       -1.3873372477        0.6971597453
 O         -2.2797037523       -1.0762243530        1.4424854429
 H         -1.8913100571       -1.1264922468        2.3344587643
 H         -3.2496989863       -1.1646015318        1.5307587885
 O         -1.7037094746       -3.7724420487        3.1959294415
 H         -2.6539031166       -3.7428515948        3.3470021493
 H         -1.3661079490       -2.9251476446        3.5315989649
 O          6.5816315674        1.4336872715        2.3459793639
 H          5.8742569899        2.0569405478        2.1047277185
 H          6.3858695824        1.0989573707        3.2369513205
 O          0.5224070288       -1.7656556492       -1.4191783305
 H          1.0800177339       -2.3313964857       -1.9897815067
 H         -0.0182220384       -2.3588757445       -0.8510377025
 O         -1.4797568602        2.2925931828        5.1775370293
 H         -0.6938000070        1.7316084725        5.2612736381
 H         -1.9768902473        1.9346824519        4.4325820564
 O         -6.8336227349       -2.3967771548       -0.0955532470
 H         -6.4974134207       -3.1671762668        0.3825965858
 H         -7.5086512939       -1.9798123354        0.4603059143
 O          0.7286956763       -1.9549436312        1.8873842652
 H          1.3257695384       -2.4744300590        2.4344050727
 H          0.1951996352       -2.5833631594        1.3893144341
 O          0.6312637128        0.6098547109        4.7027484797
 H          1.5387781690        0.4282205061        4.9863447962
 H          0.7140705881        0.9499213118        3.7984844319
 O          3.2855286790       -2.7436388772       -0.1141688963
 H          3.6889232390       -2.5364242496       -0.9806389540
 H          2.5669744437       -3.3842172309       -0.2456488018
 O          7.6876637197        0.3784393843       -1.3257578399
 H          8.2900540906        0.3512677266       -0.5409282650
 H          7.3082266310        1.2669075823       -1.2743428242
 O          8.9016596916        0.4453614745        1.0074997541
 H          8.9107949980       -0.4470708813        1.4078016694
 H          8.2692161021        0.9629809703        1.5220355654
 O          5.3442437418       -3.3674365631       -4.3552082241
 H          6.0283315386       -3.0283666966       -4.9337589918
 H          4.5194110149       -3.3442664978       -4.8623047964
 O         -5.2642747949       -4.1441872457        1.4295788387
 H         -5.3966234809       -5.0220989263        1.7860768279
 H         -4.8892250978       -3.5981504218        2.1554688491
 O         -6.0945530305        1.1059471469        4.5466292623
 H         -6.0261900242        1.7417754554        3.7895862443
 H         -6.4494891750        1.5937491942        5.2889810756
 O          1.3132413085       -4.6498179722       -0.1949786326
 H          0.9308829461       -4.8368405730        0.6764871372
 H          0.5856902471       -4.6935837839       -0.8344121513
 O         -1.1612765197       -3.1112951365        0.1333998226
 H         -1.9229708697       -3.5418014160       -0.2902696428
 H         -1.5793220183       -2.3820359613        0.6396972456
 O         -6.7421225176       -1.3098777012        3.4014083680
 H         -6.6532771859       -0.4893398298        3.9117240436
 H         -7.4917258105       -1.1704246012        2.7953785949
 O          3.3300717037        0.4647946343        4.4975829775
 H          3.3033643544       -0.1562681062        3.7290356749
 H          4.2484027351        0.4325242849        4.7937799575
 O          3.3545999871        2.1823571988       -3.3191654432
 H          2.7027948576        2.7666835308       -3.7614632109
 H          3.4636296408        2.5653283421       -2.4257821185
 O         -0.1877186187       -4.9297084157       -2.5734124209
 H          0.5028866514       -4.3108262360       -2.9083107361
 H          0.0728311320       -5.8006953206       -2.8736928620
 O          4.4995201485       -0.0960512355       -4.8147098594
 H          4.1212667085        0.6946739433       -4.4142442638
 H          5.4226859267       -0.1411243625       -4.5289492542
 O          1.4493051061        3.6990431378       -4.4529624852
 H          1.6054945909        4.2897557732       -5.1885213554
 H          0.8357673145        2.9816532567       -4.7799630163
 O         -6.8395875153        1.2259547981       -3.2730409922
 H         -6.8486337432        1.2838147977       -4.2284773266
 H         -7.0279699542        0.2843469123       -3.0550283077
 O          8.4897744346       -2.0811758619        1.9182054679
 H          7.7081713861       -2.1699311532        2.4837220863
 H          8.2130680850       -2.3913941489        1.0419563134
 O          6.1837015232        2.7305232753       -1.4932523924
 H          6.2430687223        2.8675077437       -2.4690917419
 H          5.5614636672        3.3928410834       -1.1762381708
 O          5.7441764846       -4.3369348709       -1.5964031583
 H          5.8634437146       -4.2566861415       -2.5477382067
 H          6.2246442907       -3.5767491957       -1.2103119717
 O         -1.2382959724       -1.2233988393        4.0060522945
 H         -2.0450054696       -0.9305311650        4.4514719217
 H         -0.5106672506       -0.6728399362        4.3473634041
 O          3.2491777946       -5.3100825928       -2.0324906822
 H          4.1535415732       -5.0418463787       -1.7895200465
 H          2.7368696872       -5.3616370453       -1.2137282541
 O          2.1403909950       -0.2460368955       -3.0106128369
 H          1.7303218275       -0.4887540946       -3.8687735341
 H          2.5631058639        0.6243175573       -3.1283444155
 O          3.5154781388        3.4325901411       -0.8661321971
 H          3.8677201512        3.1575849629       -0.0029747787
 H          2.8024045937        4.0653438890       -0.6595284514
 O         -4.4550369879       -1.1490028594       -1.4579843035
 H         -5.2235217464       -0.6102184790       -1.1815201552
 H         -3.6679579791       -0.5737096960       -1.3723967058
 O         -1.0200490625        6.2703873969        0.8073573619
 H         -0.2029004592        5.9646002415        0.3800737003
 H         -0.7866395637        6.4806810954        1.7132583931
 O          0.4029227351       -5.1607632786        2.3534529057
 H          0.2541596507       -6.0535337073        2.6643473822
 H         -0.3971924055       -4.6478812981        2.6020329813
 O         -3.4180464587        4.9959490141        0.6452818555
 H         -3.5406928256        4.7849993619        1.5945015309
 H         -2.6370528122        5.5805130636        0.6004905669
 O          5.6053027869       -0.6752674305        1.0625683647
 H          5.2774455665       -0.2105578848        0.2582633377
 H          6.1181816784        0.0105234916        1.5406456428
 O         -8.5491446947       -0.7375821540        1.4400890119
 H         -8.3778691411        0.2375713765        1.3808988661
 H         -9.4976716604       -0.8314808030        1.5278879678
 O         -4.4468012803        1.7619042677       -2.0273266075
 H         -5.3407022395        1.6961963953       -2.4053758052
 H         -3.8993332903        1.1976837934       -2.6151396580
 O         -7.2335256861       -1.4083051223       -2.7801994660
 H         -6.5659327040       -1.7599894835       -3.3881771381
 H         -7.0889712464       -1.8669755848       -1.9394893527
 O          5.0104660870       -3.9465299541        1.3986523904
 H          4.4025916076       -3.4291006365        0.7992930365
 H          5.6150521714       -4.3987159089        0.8061186269
 O          1.8749224196       -3.3530689191       -3.1004653325
 H          2.4873792662       -4.0580751290       -2.7716117588
 H          2.2526740734       -3.0099567306       -3.9322709061
 O          6.1182273075       -2.5480363575        3.3701437908
 H          5.6887337115       -2.9834655317        2.5931375041
 H          6.2190100885       -3.2351713453        4.0296317959
 O         -0.1928555103        3.5879273243        1.8818465513
 H          0.2677227758        2.7838224487        2.1454370218
 H         -0.8735212500        3.3532776448        1.2146217496
 O          3.3868365532       -1.1039644379        2.3812514916
 H          3.2533112801       -2.0309676614        2.6265770281
 H          4.2789534977       -1.0400060640        1.9621507997
 O         -5.8303735212        2.7875907511        2.5213486693
 H         -5.3258778855        2.3598867559        1.7882094301
 H         -5.2565065908        3.4950153298        2.8423903973
 O         -4.7655678235       -1.9848021952       -3.9591555842
 H         -4.6242577285       -1.7579305644       -3.0107697506
 H         -4.2104740811       -2.7530828221       -4.1228684177
 O          4.4564485889        3.1080512289        1.7130809966
 H          3.6300340132        2.8994506183        2.2232037808
 H          4.6848653477        4.0126803374        1.9303141534
 O          1.6865296297        4.5729157421        4.7153788211
 H          0.7405798255        4.7967204300        4.5799073555
 H          1.8504204180        4.6365463619        5.6560696858
 O          7.0713287775       -2.2668421518       -0.4795547702
 H          7.4134107841       -1.5477010721       -1.0252977608
 H          6.4621446421       -1.8154557305        0.1450381454
 O         -8.2331700855        1.9052924830        1.3837059089
 H         -8.1268395568        2.3171538467        0.5145011020
 H         -7.5007952947        2.2564909576        1.9099890768
 O         -0.1840242876        0.9756521362       -2.4578903597
 H          0.5486396965        0.3307395675       -2.4448670482
 H         -0.9557301370        0.5805837975       -2.0159733039
 O          0.6812416465       -0.8286862974       -5.2041619058
 H         -0.0777621602       -1.1914092538       -4.7053644252
 H          0.4063135109        0.0655039243       -5.4656733858
 O          2.9910898545       -2.2899044135       -5.3333581742
 H          2.1503039979       -1.9510713940       -5.6706198075
 H          3.5387054278       -1.4904798522       -5.1992848348
 O         -0.1818313287        1.7570554203       -5.0294669494
 H         -1.0656454638        2.1627134790       -5.2142508965
 H         -0.2605952701        1.4446253139       -4.1027571808
 O         -1.9167284999        2.9610228865       -0.1458181315
 H         -1.5267343278        3.3171584967       -0.9616651384
 H         -2.6278838197        3.6006452679        0.0745565854
 O         -3.6626516738       -3.6087779685       -0.7541690171
 H         -3.9955893658       -2.7057588072       -0.9377986754
 H         -4.2240308304       -3.9433615611       -0.0394685577
 O          4.7184074436        0.5282056892       -1.1051885729
 H          5.2492820418        1.3327283605       -1.2891661423
 H          4.9117552027       -0.1539580457       -1.7699540128
 O         -3.2311310862        0.2799964739       -3.9053245800
 H         -2.4251629762       -0.2406396871       -3.7164298092
 H         -3.8823198111       -0.3837317190       -4.1889420062
 O          2.7042616872       -3.7347812700        2.9833166204
 H          3.4617755042       -4.0964256292        2.5028548948
 H          1.9663129308       -4.3467919131        2.8309714336
 O         -4.3964830952       -2.8414898643        3.6387393861
 H         -5.2954619618       -2.7796521304        3.9783042747
 H         -4.0585943078       -1.9269798629        3.7319249916
 O         -5.4103277669        4.9251700551       -1.1730682551
 H         -4.7044998065        4.9234745860       -0.4955598088
 H         -5.8709548710        5.7593703931       -1.0807142104
 O         -0.9652067516        4.7303803975        4.1790929964
 H         -1.1446605308        3.9205160948        4.7043294677
 H         -0.7066705213        4.4031574213        3.2922533811
 O         -3.4722323042        4.1315796692        3.1744743381
 H         -3.0806428434        3.2534012380        3.0196087709
 H         -2.8011767372        4.6212865549        3.6782000071
 O         -2.2887742061        0.3058610437       -0.9020830266
 H         -2.2130300770       -0.1701242520       -0.0564880234
 H         -2.3843268882        1.2492490553       -0.6784928706
 O          0.1305529316        0.7245421507        1.9950306424
 H          0.7020399058        0.8737935675        1.2050018843
 H          0.2377444801       -0.2414901155        2.0722747440
 O          1.6063944163       -2.5070386308        5.2158997242
 H          2.1292769171       -3.0400937333        4.6057251782
 H          1.2977991640       -1.7629470837        4.6929427524
 O          1.6614849355        0.5322794299       -0.1890381291
 H          2.6192737579        0.4812724154       -0.2575888390
 H          1.3461906542       -0.3298898483       -0.5019237526
