  249
       -422.56896651
 O          4.2540831968        1.5643352956       -5.0410914939
 H          4.0096953626        2.2106282272       -5.7027298654
 H          3.5938885558        1.6321933775       -4.3109148283
 O          3.5792283471        1.8381082851        3.7313724422
 H          3.2129798899        1.7704254877        2.8245318129
 H          3.5254670310        0.9080640881        4.0533134051
 O         -2.7230242769       -3.0448970205        1.6083696992
 H         -2.6271478992       -2.1004480093        1.8031070358
 H         -3.5918264444       -3.1596656094        1.2122367566
 O         -5.7747458284        4.2052431693        1.3913364138
 H         -6.4433863182        3.7875026648        0.8169025437
 H         -6.2388284114        4.5580512897        2.1508282743
 O          5.8965603049       -3.9176935459        0.7693620067
 H          5.8509299677       -3.6778633028        1.7027495200
 H          4.9631888262       -3.9322665207        0.4767751836
 O          3.9135418484       -0.4077506565       -1.6285853339
 H          4.3827514565        0.4255945602       -1.4814909533
 H          4.5505869839       -1.1043797677       -1.4227945240
 O         -4.3857908421       -0.5887249145        0.2956980964
 H         -4.0470827530       -0.5553345896       -0.6083978681
 H         -4.7516921703       -1.4849443996        0.4365757627
 O          5.4390666631        3.5946303442        0.8166225245
 H          5.6935326651        2.8027928867        1.3459967327
 H          6.2148288144        3.8529862763        0.3061781840
 O         -0.6300267716        4.6956397265       -3.7471801976
 H         -0.4534381835        5.4173409361       -4.3489215412
 H          0.0553899611        4.7328493529       -3.0270888186
 O         -4.8324360146       -4.4762441683       -1.2722430384
 H         -5.4331425260       -5.2201641451       -1.3350349933
 H         -5.0831848997       -3.9885230271       -0.4539514475
 O         -0.6665541920        5.1447329070        0.2577021255
 H         -1.4448269636        5.6760822140        0.0766672372
 H         -1.0156289906        4.2539637954        0.5022313972
 O         -2.9206866115       -4.5250686710        3.8245174631
 H         -2.8116874355       -5.4224061750        3.4948074225
 H         -2.7899223015       -3.9591534442        3.0282636601
 O         -2.6180104335        5.0012412011        2.6466136234
 H         -2.6104648834        5.9051867016        2.9604843231
 H         -2.8670665618        5.0343819658        1.6978940251
 O         -0.3531967573       -3.8260217057        4.5417684149
 H         -0.6126575950       -2.9527162754        4.8744706982
 H         -1.2027707147       -4.2977815203        4.4619021177
 O         -0.3568627399       -4.6992909997       -1.9829903894
 H          0.2320625442       -4.7471077468       -2.7739142020
 H          0.2435849683       -4.7671059152       -1.2138536080
 O          2.0028809035       -0.9263672243       -3.7112517515
 H          2.6071273642       -1.0365236846       -4.4846192166
 H          2.2020817065       -0.0340748183       -3.3715887667
 O         -1.4624241639        2.6827423665        0.9292947013
 H         -2.4022437560        2.4603945158        1.0849412307
 H         -0.9349150743        2.1353886663        1.5314656226
 O         -1.9558336623        1.7305964998       -1.6792430007
 H         -2.3450696673        2.6267634394       -1.7551683463
 H         -2.6807946568        1.1031787005       -1.7953875714
 O          0.3485758906        0.9451613277        2.1097998777
 H          1.2644920559        1.0919661319        1.8213458523
 H          0.4148982045        0.5982925941        3.0307647846
 O          1.2567107552       -4.8473074729        0.1672653755
 H          0.8193157046       -4.3013716723        0.8571500531
 H          1.3767980136       -5.7088931706        0.5902606049
 O          3.3727472232        2.9923714437       -0.7893522674
 H          2.8247737856        3.7784287468       -0.8946065779
 H          4.1794462074        3.2670847782       -0.3052684144
 O          2.2221950779       -1.7055245933        1.7226048433
 H          2.8345746675       -2.2509373280        1.1896569516
 H          1.5101872036       -2.3240359950        1.9893611488
 O          1.3808012064        3.7021211749        1.4288474895
 H          2.2142816884        3.9934649922        1.8706210047
 H          0.9420679105        4.5016624347        1.1169848986
 O         -3.3738765601       -0.6180799026       -2.3555117504
 H         -3.4345063651       -0.1355127822       -3.2232736490
 H         -2.6758549776       -1.2824335208       -2.4765809903
 O         -4.0241234831        2.0447657443        1.2294294608
 H         -4.5649503840        2.8229825400        1.4239828170
 H         -4.2687718517        1.7759201087        0.3278133875
 O          8.3335703217        2.7905676545       -3.4107731212
 H          9.1239611629        2.2953495635       -3.1792750026
 H          7.6910006786        2.1259042022       -3.7177902064
 O          5.8541667183       -1.9473381395       -3.5347769945
 H          6.0813226479       -2.1115922140       -2.6040940944
 H          6.0952525486       -1.0153581368       -3.6810807023
 O         -3.0008495169       -0.3957493063        2.6261729292
 H         -3.4152054887       -0.1659124744        1.7745857365
 H         -2.6063681653        0.4322526826        2.9778665811
 O         -1.6235836604       -1.4534173332        4.8650831963
 H         -2.0530379126       -1.2798643486        4.0156984507
 H         -2.1738181936       -1.0325461382        5.5415613425
 O          7.9888583487        0.1009585286       -0.3805175605
 H          8.3453740516        0.6627709626        0.3364456184
 H          8.5861836283        0.1621387630       -1.1439846746
 O         -5.4944162332       -2.9767962030        0.8239891318
 H         -6.3905227200       -2.6280878709        0.5707198486
 H         -5.5484934951       -3.1388358057        1.7984200710
 O          3.4125987845       -3.3140040631       -0.0846632684
 H          3.4608490988       -3.1826406458       -1.0545073126
 H          2.7240793805       -3.9990330622        0.0284143859
 O          9.0743581742        0.0286742596       -2.8989352438
 H          9.5140283957       -0.7566879822       -3.2261887003
 H          8.2165571552        0.0804515706       -3.3481016171
 O         -5.5426052010       -1.1303774102       -5.4581638331
 H         -5.8580709203       -1.6520029590       -6.1960559696
 H         -5.4984491395       -1.7229738789       -4.6856910301
 O          2.3946180954       -4.3709638254        3.2436186387
 H          1.7743309050       -4.1753191401        3.9524180145
 H          2.0884829445       -5.2066493169        2.8607027228
 O         -3.0916080273        0.3859232927        6.2107822724
 H         -3.1001729238        0.9087630973        7.0115387608
 H         -2.6696004118        0.9383334305        5.5104635689
 O          0.6300987796        2.0811215263       -0.6470322147
 H         -0.3408965289        2.0876004259       -0.5593065907
 H          0.9616308004        2.5167506974        0.1623934835
 O         -6.6781511365       -0.3894497411       -2.0637220656
 H         -6.9604880142        0.1505852791       -2.8352084127
 H         -6.2700193022       -1.1857943161       -2.4478655049
 O          6.9235968602        3.9655188113       -1.4915350411
 H          6.6230646966        4.8010917275       -1.8496956722
 H          7.5601406554        3.6056657303       -2.1522879382
 O         -3.5154880063        5.2859095073        0.1272206833
 H         -3.3401096228        4.8660837549       -0.7352133316
 H         -4.4130286786        5.0294127710        0.3774125942
 O         -3.4915232824        0.5502062782       -4.6795501142
 H         -4.1087963804        0.0163202061       -5.1986590449
 H         -2.6009178464        0.5051035314       -5.1315459009
 O          3.3454917746       -3.0235310408       -2.7471196853
 H          2.8495503232       -2.2036982809       -2.9622192913
 H          4.2222958721       -2.8971036660       -3.1350637764
 O         -5.2000533667       -2.4502852829       -3.0730473448
 H         -4.4985432165       -1.8375743809       -2.7631009473
 H         -5.1200699337       -3.2459004211       -2.5166057832
 O         -2.8973849461        4.1601320687       -2.2875352389
 H         -3.5989590166        3.8475551230       -2.8984307657
 H         -2.1641540168        4.4701867863       -2.8456443432
 O          5.9339089386        1.5079496946        2.4048000010
 H          5.6512206767        0.6658773726        1.9848714006
 H          5.2543484693        1.6853674896        3.0843333362
 O         -6.9032315605        1.0761356580       -4.2717974944
 H         -6.2889186497        1.8273202250       -4.2284534027
 H         -6.5073911059        0.4341347154       -4.8780209283
 O         -5.1315826388        1.6670838520       -1.2971768499
 H         -5.8659068089        2.2320294805       -1.0025182678
 H         -5.5678635736        0.8128542184       -1.5140121930
 O          1.0861435527       -6.6528158740        2.1698190213
 H          0.1266477242       -6.4175409971        2.1199417442
 H          1.1353585592       -7.5471282600        2.5045748429
 O          6.4798006920        0.7397350596       -3.7368218447
 H          5.7742791517        1.0646749631       -4.3220660131
 H          6.1752445078        0.9726071114       -2.8210608503
 O         -4.1633342093        3.3102900114        4.1923751034
 H         -3.8162260432        3.9408140100        3.5410297327
 H         -4.9154617029        2.8328232237        3.8097436821
 O         -1.1012921262        0.3970843820       -5.6476968921
 H         -0.6105933324        0.9463267598       -5.0102883668
 H         -0.7632321526       -0.5145373807       -5.5431445716
 O         -1.9353425799       -2.8467501358       -2.9011268887
 H         -2.6008830591       -3.3684464951       -3.3550088638
 H         -1.3381045554       -3.5085866660       -2.4633387623
 O          1.0226512161        4.5097458971       -1.7192152873
 H          0.4620665932        4.9296731596       -1.0346008229
 H          0.9025900287        3.5511099720       -1.5489953226
 O         -1.4040217521       -5.7728282704        1.8081417774
 H         -1.8184496791       -5.9739694343        0.9445533483
 H         -1.1635143221       -4.8352717480        1.7518482227
 O          2.4739648602        1.6669927386       -3.0640748195
 H          2.7652906094        2.0919999105       -2.2420548446
 H          1.5289148150        1.8832998906       -3.2071634605
 O          3.5942726857        4.4521991710        2.6380375491
 H          4.3247364424        4.3291420839        2.0093984871
 H          3.7282167372        3.8008344196        3.3360927416
 O          1.3056035033        2.3963652812        5.3813030434
 H          0.7398321190        2.9889737308        4.8645146863
 H          2.1637667686        2.3767402805        4.9300741854
 O         -0.3504037150        3.5737372267        3.5155890945
 H          0.2623262842        3.5048621633        2.7553080690
 H         -1.0791206810        4.1453687043        3.2265910299
 O          4.8792305972       -0.6912798369        1.3101629017
 H          5.2932220399       -1.0651599432        0.5112001894
 H          4.7915810875       -1.4357385265        1.9386508210
 O         -4.6973627276        2.7519747941       -3.6960512809
 H         -4.1677891268        2.0904334586       -4.1784151506
 H         -4.8586052747        2.3496876102       -2.8135543274
 O          6.1731586873       -1.8522008680       -0.8033967159
 H          6.9683174145       -1.3270321258       -0.6182378183
 H          6.2292789617       -2.6877281115       -0.2728394208
 O          3.9129968913       -1.1609427696       -5.5076753571
 H          4.6258657343       -1.6216645945       -5.0472576625
 H          4.1609612484       -0.2242884358       -5.5419303392
 O         -7.3800643168        2.6818166996       -0.1478190016
 H         -8.2105916220        2.6042333097       -0.6166491433
 H         -7.2524557961        1.8408933449        0.3720049814
 O         -0.1664637050       -2.0251072271       -4.8528004791
 H         -0.7952998691       -2.2764245358       -4.1551255897
 H          0.5976033230       -1.5998684060       -4.4176924306
 O          0.0984426895       -3.3276044032        2.0007823840
 H         -0.0574452258       -3.4943883921        2.9609656542
 H         -0.4789794743       -2.5975742664        1.7030476586
 O         -6.2646548674        1.5586214063        3.6974608356
 H         -5.7829203260        0.7436370827        4.0053601617
 H         -7.0083902381        1.6677494604        4.2897613792
 O          8.5458730599        1.7241482128        1.6723164500
 H          7.6542501106        1.7030109724        2.0655640477
 H          9.1671284263        1.5700903980        2.3839991796
 O         -5.3916231925       -3.2238572134        3.4552998101
 H         -4.6403412889       -3.7411292848        3.7876369509
 H         -5.3595113814       -2.3648559803        3.9022877489
 O         -6.7124640675        0.5677259339        1.2337593662
 H         -5.8401477253        0.2739813584        0.9016112073
 H         -6.5507259244        0.9334566731        2.1241327912
 O         -2.4520325195       -5.9225911763       -0.6676971504
 H         -3.2185375717       -5.3761408845       -0.8893383040
 H         -1.7243986702       -5.6215454207       -1.2351255352
 O          0.6195689358       -0.0086462649        4.5468836705
 H          0.7274884870        0.8294047454        5.0498921846
 H         -0.2000429129       -0.4587702231        4.8159099819
 O         -2.1308196411        1.6506546373        4.0686984425
 H         -2.8975791599        2.2732613971        4.1035175940
 H         -1.3549656064        2.2272213084        3.9163151124
 O         -0.1324865258        1.9862987041       -3.6219132615
 H         -0.3344816907        2.8975541245       -3.8833603693
 H         -0.7557307109        1.7891739848       -2.8872031471
 O          3.1508873588       -0.7571102747        4.1154668315
 H          2.9041211021       -1.0452785766        3.2134119647
 H          2.2908132387       -0.6437636305        4.5513571779
 O          2.9121435130        1.1845894124        1.2026849922
 H          3.5822531152        0.4760004113        1.1666396457
 H          3.0880838382        1.8010769135        0.4696536506
 O         -7.6890822206       -1.7279679741        0.1178922887
 H         -7.5072531551       -1.3179571747       -0.7447542829
 H         -7.6300077315       -0.9882968771        0.7416705548
 O         -4.9306640118       -0.5945182374        4.4042776356
 H         -4.4566024026       -0.3541710057        5.2161898415
 H         -4.2424032128       -0.5632925898        3.6916602294
 O          1.2702221551       -4.3907419169       -4.0370883369
 H          0.9019808444       -3.7013102519       -4.6076821327
 H          2.0911261169       -4.0368443163       -3.6562439123
 O          4.6780933313       -2.8099630828        3.0439417397
 H          4.5265125604       -2.2641732770        3.8245466154
 H          3.9244148817       -3.4285914459        3.0292091591
 O          5.8572247552        1.4435169478       -1.2748923923
 H          6.1061652094        2.3822735144       -1.2796930048
 H          6.5893663894        0.9632595610       -0.8290195779
 O         -0.8813605607       -1.1547602214        0.8812246535
 H         -0.4514036337       -0.4199808567        1.3576727789
 H         -0.3659026847       -1.1847325392        0.0519027914
 O          0.8387208291       -0.6569982400       -1.1528315819
 H          1.7768488330       -0.8669403268       -1.1134377299
 H          0.7959413276        0.2988484773       -0.9980750435
 O         -9.3922512607        1.0949452162       -1.1452908257
 H         -9.0633774173        0.9400635822       -2.0341167812
 H         -9.2648484595        0.2781571655       -0.6553499651
