  84
       -142.51608622
 O         -4.5675055426        2.1778778080        0.7929142315
 H         -4.7403035235        2.0360276082       -0.1509155566
 H         -4.4317904077        1.2993225141        1.1815700522
 O          5.1168240853        1.2407884045       -0.0631737130
 H          6.0731709126        1.2671558007       -0.0259875786
 H          4.7937368073        1.2825478926        0.8732713384
 O         -2.4589108267        3.7816044764        0.9558356614
 H         -3.2491876709        3.1908816702        0.8945907245
 H         -2.7750574644        4.6105183652        1.3160620220
 O          1.6298899020       -4.0428138511        0.5881714823
 H          0.8999900905       -3.8613480031        1.1906353388
 H          1.4397498483       -3.5350271337       -0.2185939308
 O          0.7297700569       -1.3998108528        2.7019086621
 H          0.2238902814       -2.1980056235        2.4956571200
 H          0.1511847778       -0.8645601838        3.2810427054
 O         -4.9656694168        1.4474936284       -1.8836011074
 H         -5.7297456515        1.4020863887       -2.4586359828
 H         -4.6670611047        0.5316535481       -1.7204480445
 O          3.3897209182       -0.3541615482       -3.3294944077
 H          4.0297105088       -0.8459878258       -3.8441207481
 H          3.4584051310       -0.6900684084       -2.3986321317
 O         -1.0715953095       -0.1159897711        4.2754905138
 H         -1.0063459738       -0.2231101133        5.2245664203
 H         -1.7892634123       -0.7300752291        3.9734229856
 O          3.4801215609       -1.2141368362        3.0627821380
 H          3.8076733851       -1.8820871092        2.4141525696
 H          2.5159002771       -1.3120511806        3.0533606384
 O          3.6590017670       -0.9334989624       -0.7690169331
 H          4.2720478163       -0.2151142691       -0.5239766177
 H          2.8053384914       -0.6895984089       -0.3555780934
 O         -4.5300319164       -0.5514431794        1.5522145066
 H         -5.4313240039       -0.7903968022        1.7710402148
 H         -4.3843610894       -0.7880131350        0.6097972494
 O          4.0807244606       -2.9286025420        1.1132828558
 H          4.0683871844       -2.3391606595        0.3416703191
 H          3.2842603728       -3.4821062115        1.0138572855
 O          1.1266815395        3.0454588081       -2.2930301185
 H          2.0747266062        2.7758019361       -2.2184644162
 H          1.0668343784        3.5480187779       -3.1082278159
 O          3.6405352307        2.2086450601       -2.3018049660
 H          3.5655974962        1.3681344022       -2.7863362406
 H          4.1254743441        2.0053676868       -1.4895704375
 O         -3.9470639987       -0.9025275422       -1.0426623582
 H         -3.6882234604       -1.7756283713       -1.3507372212
 H         -3.0863683643       -0.4582865812       -0.8057729779
 O          4.2419193158        1.1923703976        2.4196147861
 H          3.9279944876        0.2690506415        2.6459206349
 H          4.8082370740        1.4524739496        3.1461147369
 O          0.7604227908       -1.1582217162       -3.7426065543
 H          0.2024927329       -0.4144716680       -3.4465354439
 H          1.6671027160       -0.8117706470       -3.7607963518
 O         -1.6144889104       -0.0420527166       -0.2957233143
 H         -1.1456751158        0.2948500518       -1.0916615460
 H         -1.2715500408        0.4832442880        0.4806568262
 O         -0.5632286011        0.9106238241       -2.5551491268
 H         -1.3642078690        1.3665855970       -2.9098556048
 H          0.0941301261        1.6222260383       -2.4392383272
 O         -1.4151664452        4.1779916546       -1.5570128587
 H         -0.5035657158        3.8620157388       -1.5692306416
 H         -1.7479474427        4.0312666825       -0.6531454534
 O         -1.6424976506       -2.6929627705       -0.4120599622
 H         -0.8068517518       -2.8042341651       -0.9155894051
 H         -1.6494403706       -1.7208821445       -0.2531517553
 O         -2.6478969047        2.4094836569       -3.1869934754
 H         -2.2863247392        3.1696914420       -2.6842474523
 H         -3.4670942119        2.1627104039       -2.7349989329
 O          0.7861961041       -2.2983069654       -1.3643054903
 H          0.8831973702       -1.4739651627       -0.8649219300
 H          0.7884993515       -2.0257478854       -2.3141840770
 O         -0.9515383751       -3.4909167552        1.9323280895
 H         -1.1702180778       -4.4156430649        2.0490808870
 H         -1.2533179245       -3.2329248185        1.0040188702
 O         -2.7847435529       -1.8584961937        3.2891365531
 H         -3.3438940272       -1.3894193595        2.6474331062
 H         -2.1920257911       -2.4417182131        2.7844825928
 O          1.3249509542       -0.1721729660        0.3438884168
 H          1.1202652975       -0.5844639343        1.2061562666
 H          1.2746826257        0.7867720257        0.5101553636
 O         -0.9999984578        1.4831964629        1.7386447852
 H         -1.4024703191        2.3464632962        1.5700716865
 H         -1.1749385949        1.2269034961        2.6487512411
 O          1.7648831907        2.4603895036        0.9523653903
 H          2.5509857866        2.2781618603        1.4784609697
 H          2.0198289793        2.9906014071        0.1950636748
