  609
      -1033.95710746
 O          5.3526465231        1.6371767635        6.0916876654
 H          5.4945928138        0.7815593223        5.6607482033
 H          6.2138739735        2.0826426610        6.0950191808
 O         -2.5133573310       -0.8771920017        1.9352643024
 H         -3.2447594321       -1.1410293204        2.5203786114
 H         -1.8652305339       -1.6062157512        1.9450111592
 O          4.4116198846        1.3971064487       -1.2772879035
 H          4.8895014555        2.2102808112       -1.0282194409
 H          3.4831573801        1.6146906556       -1.4425316564
 O          3.2089691504        2.0879413524       -4.5516516406
 H          3.3698248269        2.5986103310       -3.7276866057
 H          2.5855493386        1.3629036651       -4.3295519252
 O          0.7654662297       -4.0873341958       -4.8165240787
 H          0.1450148628       -4.6968327655       -5.2339554480
 H          1.1932746757       -3.5894202465       -5.5349923315
 O          0.5137991472       -3.9228708144       -0.3799928513
 H          0.6190542092       -4.6969235890       -0.9861859384
 H          1.1497164941       -3.2476816952       -0.6843781583
 O         -2.8837040711       -2.9617932695       -3.7480066871
 H         -2.8237952988       -3.0530306598       -4.7164046080
 H         -3.8300121300       -2.9109492117       -3.5251287344
 O         -8.0486779693        0.3784610949        1.7530472914
 H         -8.3258425958        0.5387247848        0.8345880022
 H         -7.8213909983       -0.5719689394        1.8364142859
 O         -0.6567023158       -2.8810077100        1.9477455923
 H         -1.0201441840       -3.6777671949        2.3744184913
 H         -0.2972554488       -3.1798251848        1.1019594424
 O          0.9902511884       -2.6763075448        4.0205023072
 H          0.4464159270       -2.7390113442        3.2058283491
 H          0.6965025551       -3.3982696015        4.6010545801
 O         -3.7457802941       -0.4878934102       -0.4595411648
 H         -3.1127582129       -0.4253082146        0.2791015595
 H         -3.2670765616       -0.4080135045       -1.3026598148
 O         -0.2082643365       -2.1664231232       -3.2290633721
 H         -0.9095939684       -2.4261415461       -2.5896564905
 H          0.0723559332       -2.9850300702       -3.6852179132
 O         -3.1891064313       -3.9471230911        2.4755081987
 H         -3.8072364034       -4.5686174287        2.9026962445
 H         -3.7406446318       -3.3964346702        1.8847852613
 O         -7.3956454986       -3.6974810647        4.2788835917
 H         -6.8389084616       -3.8727749566        5.0462441262
 H         -8.1812299172       -3.2182685612        4.5649996463
 O          3.1347513816       -0.7436569473        5.2862620781
 H          2.8207419723       -0.6732098393        4.3554541591
 H          4.1020224297       -0.8134687019        5.1959168672
 O         -8.8475722227       -1.0622079659       -2.8217511951
 H         -8.5859407926       -1.2481942396       -1.8787653860
 H         -8.2455531851       -0.3230635813       -3.0819060673
 O          5.7284256526       -0.6678990744        4.5321436890
 H          6.2744569918       -1.4041393873        4.9057137388
 H          5.5006082151       -0.9769003169        3.6207337672
 O         -0.4258524225        1.0330061446       -3.4192686147
 H          0.3004560894        0.4700204831       -3.7364315323
 H         -0.3098276346        1.8599816933       -3.9036461244
 O         -0.2197743958       -1.5466565107        6.4675988881
 H          0.6170802894       -1.9603665369        6.7178282806
 H         -0.5843184651       -2.0551190076        5.7253027405
 O         -9.2636681765        0.7795585701       -0.6193760232
 H        -10.0970529408        0.3339813415       -0.4101968568
 H         -9.3275194649        1.2016225412       -1.4936364435
 O         -3.7336778549       -4.7547948344       -1.1878910009
 H         -3.9991818057       -5.1975801276       -2.0122513795
 H         -4.3616065820       -5.0895914513       -0.5230332499
 O          2.5030355396       -0.3851499760        2.7285735539
 H          1.5825494296       -0.1464540054        2.8892998630
 H          2.4728420684       -1.2355544654        2.2361401839
 O         -0.0106918331       -0.1464135465        3.8141287032
 H         -0.9032547061       -0.0617985520        4.1961160121
 H          0.3234706607       -1.0144789557        4.0922023763
 O         -7.3665291692       -5.2662440299        2.0090018439
 H         -8.0247292543       -5.0446397546        1.3354879805
 H         -7.5177375575       -4.6592936966        2.7496315553
 O          7.3692589606        5.6416774109        0.2113927858
 H          7.2096582707        6.2791413508       -0.4919242261
 H          7.1409830391        6.0852897501        1.0629304377
 O          4.0761385686        3.2275701780        4.3497741843
 H          3.8740954012        2.7129135699        3.5473049045
 H          4.4742287152        2.6052851400        4.9898471167
 O         -0.8173268386       -5.2082791941        3.3919272538
 H         -0.6478068684       -5.0903627550        4.3299188321
 H         -1.4884321121       -5.9210968745        3.3086958193
 O          2.6672487356        3.5841731826       -0.0069756551
 H          2.1534015591        4.0231383612        0.6930274819
 H          3.0853772688        2.8429346910        0.4552546624
 O          6.2027181418        1.2263614796        1.2073707305
 H          6.3112746154        1.9383868640        0.5464257255
 H          6.4270564542        0.3824115197        0.7573666601
 O          4.0952968806       -1.0075090719       -0.1972876348
 H          4.1799605917       -0.0981874828       -0.5333821965
 H          3.3400133151       -1.4166079597       -0.6372578774
 O          6.3925687102       -6.2243277552        0.2463102851
 H          6.4537302882       -6.7562091875        1.0466559183
 H          6.3558631045       -5.3017092812        0.5768881675
 O          3.2127293667        5.9804272930        3.1914446151
 H          3.0962191364        5.8559779340        4.1591041668
 H          2.6264522137        5.2812065135        2.7973034925
 O         -1.5361107810       -5.2279817000       -3.2227620890
 H         -2.0341668573       -4.3856982610       -3.1890208064
 H         -1.5382219661       -5.4804592533       -4.1574008013
 O         -1.9226791810        1.0804674407       -5.8786381899
 H         -1.3929046996        0.2689034093       -5.8649202990
 H         -1.4217204145        1.7460888892       -6.4084012847
 O          3.7939500997        1.8795211972        1.9695975414
 H          3.2911388612        1.1194511430        2.3203218075
 H          4.6773215931        1.5235445200        1.7143800272
 O         -1.5961842857        4.6335275217       -2.3182286847
 H         -1.9552746313        4.0374667363       -2.9996508596
 H         -0.7641943247        4.2307155755       -2.0096166771
 O          0.8310838757       -5.8905375893       -2.0536321151
 H          0.6326670277       -6.7935407109       -1.7194751843
 H          0.0688497526       -5.6506756662       -2.6074378335
 O          9.3364797186       -3.2921497925       -3.4978202261
 H         10.0230177257       -3.2337752815       -2.8169807810
 H          8.8651181571       -4.1141738998       -3.3162712957
 O         -1.9763222063        1.9898922401       -1.1075386590
 H         -2.0166740067        2.0565852000       -2.0640442485
 H         -1.5216379181        1.1161370037       -0.9053304415
 O        -10.3149563702        0.7198254512        3.0798743208
 H        -10.1779986085        1.4093474982        3.7309982822
 H         -9.4522934922        0.6612694215        2.5940302716
 O         -7.9778119385       -1.7187989592       -0.4731621475
 H         -8.5771135479       -1.9198267939        0.2719133227
 H         -7.4310580028       -2.5225056165       -0.6093682193
 O         -1.9779440846       -2.7041905716        4.5921096770
 H         -2.3166754949       -1.7940172623        4.6430692428
 H         -2.4047042294       -3.1248948586        3.8194016852
 O         -0.1466800867        5.1099426538        4.1501255269
 H         -0.7899039706        5.7947575308        3.9275787986
 H         -0.6368184858        4.3040268070        4.4285217248
 O         -4.6590799570       -1.5316063335        3.5708915442
 H         -5.5231710037       -1.1111461973        3.7044176744
 H         -4.3732153080       -1.7496292134        4.4708710626
 O         10.0266331111        3.9889745332        2.8572482886
 H         10.3972424358        4.3272380781        2.0365579101
 H          9.0640893918        3.9919624097        2.7176176828
 O         -0.6346323661        3.3115756353        0.7914257207
 H         -1.0977957600        2.9486635951        0.0085130735
 H         -0.7779466238        2.6524548275        1.4971019417
 O         -1.2651140150        5.0922651757       -5.3681649076
 H         -0.7324443914        5.8903789588       -5.2561233158
 H         -0.7416633547        4.3959214238       -4.9097606447
 O         -2.7183766290       -0.3362891771       -3.0121037690
 H         -2.6035743620       -1.2836790718       -3.2167381947
 H         -1.8756299677        0.1145915643       -3.2095282220
 O         -5.4344027774       -4.5013449504       -5.2490913022
 H         -6.3770223756       -4.6164685928       -5.3771919894
 H         -5.2254432084       -3.6039880962       -5.5684726029
 O        -10.2907435565       -3.4656970199       -2.2854043069
 H         -9.7888560303       -2.6847177789       -2.5514597547
 H        -11.1400183528       -3.0952291941       -1.9644287973
 O          7.7185551593       -5.1992977303       -2.0121328168
 H          7.4401925066       -5.8338622003       -1.3388307292
 H          7.8716406136       -4.3733994566       -1.4994689325
 O          2.1684373203       -6.0971863249        4.4193096729
 H          3.0510872615       -6.2034158298        4.8490375958
 H          1.9107903453       -6.9515979360        4.0765771464
 O         -1.7764403489        1.6399228814        2.5014316947
 H         -2.5702704976        2.0057077680        2.0520731278
 H         -1.8812424447        0.6740160573        2.4029764381
 O         -8.0361513002        2.2608820739        4.0896328879
 H         -7.2841087780        2.8049165979        4.3641219236
 H         -8.4287629834        2.7670163642        3.3595576076
 O         -3.7407116176        4.6580601037       -0.7228593698
 H         -2.9181394745        4.6127949501       -1.2524092235
 H         -4.0973699123        5.5547145102       -0.8743981719
 O         -1.6236480606        7.3038301725       -2.7905355150
 H         -1.5886479986        6.3452542723       -2.5852117803
 H         -1.6388212704        7.7458994177       -1.9355213869
 O         -6.2581529556        0.3154022005       -0.8061268677
 H         -6.8432618525       -0.4263140981       -0.5593703922
 H         -5.3338033047        0.0644501644       -0.6290447386
 O         -9.2535702478       -1.6240138193        4.0520903879
 H         -9.8913222003       -0.9031914809        3.9315434956
 H         -8.3927699685       -1.1632632711        4.1501669239
 O          2.4437865093       -7.4641479973        0.4073879962
 H          1.9146391406       -6.8295922143        0.9243180639
 H          1.8094237901       -8.0154588081       -0.0562198159
 O         -2.5245251912       -3.0029302128       -6.4342391294
 H         -3.3787559660       -2.5790064350       -6.6156804030
 H         -1.8497837955       -2.2987124166       -6.3394400783
 O          7.5590024840       -4.6716340123        3.6480190623
 H          7.2016977678       -4.2942660991        2.8062061918
 H          7.1949943157       -5.5596467991        3.6873871598
 O          5.8543745013       -6.9344415223        3.0131945090
 H          5.1543607457       -6.3012151165        2.7088692768
 H          5.4541629031       -7.8037198511        2.9969765549
 O          1.3546450570       -5.2839352252        1.7840533769
 H          0.6212095601       -5.4262026594        2.4121112359
 H          0.9478089239       -4.9261283889        0.9730520050
 O          6.1375520412        3.2983248737       -0.5415803782
 H          6.6463748586        3.3129955167       -1.3766457560
 H          6.3902924002        4.1326809129       -0.1140878813
 O         -1.7794769594        7.5680391690       -0.0411973015
 H         -1.1078383931        6.8519048843       -0.0996042153
 H         -1.7465684105        7.8664504416        0.8729849698
 O          0.4942005537       -4.6409754818        5.8764220881
 H          1.0849903215       -4.0781939249        6.4083640448
 H          1.0992198398       -5.2645161847        5.4177227029
 O          0.6921133943        3.2859032899       -1.8298032332
 H          1.4055057011        3.5033574894       -1.2036838812
 H          0.6457776142        2.3199139185       -1.8653485819
 O         -9.2859285636        4.0387478503        2.4011213033
 H         -9.6115887348        3.6976864580        1.5304056535
 H        -10.0400220937        4.4279867239        2.8423028958
 O          8.3092253045       -3.0420150856       -0.5577925298
 H          7.8674008228       -2.1667959775       -0.5568810933
 H          9.2593359594       -2.9050186142       -0.7293196428
 O         -4.8602371449        2.5645233398       -2.0987401846
 H         -4.0864227290        2.4225150094       -2.6647775910
 H         -4.6104748376        3.2943849389       -1.5028091930
 O         -3.9891940358        5.9154390025        3.8850686809
 H         -3.6781983639        5.4712032454        4.6978976045
 H         -3.6005102289        5.4054715292        3.1532336652
 O          4.2787830827        6.0031473446       -0.4828565423
 H          4.2406306029        6.7843520589        0.0995267033
 H          4.4463274488        5.2573074357        0.1304252273
 O          1.9687549777       -2.0527854470       -1.7056854332
 H          1.1770140994       -1.9505803318       -2.2772416211
 H          2.4713865185       -2.7751634003       -2.1496418031
 O         -0.1759756666        1.1954891420        6.6115492209
 H         -0.1452753420        0.2356698669        6.4442517165
 H          0.7508364687        1.4735637229        6.6827186361
 O          6.1833628198        6.2865227709       -2.3625854439
 H          6.6948165774        5.4641300824       -2.4857743071
 H          5.5361049798        6.1168545509       -1.6444854953
 O          2.3001021899       -2.6673915579        1.4146698866
 H          1.9242215805       -3.4493418128        1.8396335519
 H          2.9698311749       -3.0167480227        0.7996843326
 O         -5.4105880413        0.5735235381        1.8605073299
 H         -6.3867176192        0.6715632885        1.8370084485
 H         -5.2262957331       -0.3687085262        1.9153885090
 O         -6.9849560582       -0.1890698349        4.4082933132
 H         -6.6801674237       -0.0302959007        5.3070929264
 H         -7.3639927383        0.6682279331        4.1185944927
 O         -2.3310437470       -4.4278597665        6.6091520382
 H         -2.2860804873       -3.8121406768        5.8421141866
 H         -1.4533799884       -4.8206113273        6.6468067625
 O         -5.7609896728        5.8503455719       -2.7706611067
 H         -5.0279110235        5.8853702094       -3.4102440671
 H         -5.5151807951        6.5128630896       -2.1114845152
 O         -6.5114309876        3.4273235946       -3.9353869902
 H         -5.9690457100        3.0268028627       -3.1997635866
 H         -6.6808389878        4.3322417260       -3.6536818785
 O          2.4076862948        0.0326045910       -7.1107652224
 H          2.0680382967        0.8847542374       -7.4124647917
 H          3.3562046192        0.1849757234       -6.9267035462
 O          0.5804615885        3.4493406628       -4.4386449285
 H          1.2265727748        4.0031258569       -4.9121028177
 H          0.7660831771        3.5619813677       -3.4848846427
 O         -4.8831113376       -6.1672445379       -3.1793461511
 H         -5.7673402437       -6.3161448485       -2.8294139238
 H         -4.9912407614       -5.6017176311       -3.9653356447
 O         -4.5243106226        3.9423541613       -5.5805512021
 H         -5.3253075466        3.7741244464       -5.0265254988
 H         -4.3630895196        4.8898228213       -5.5517413701
 O         -7.2949961884        2.6894052643       -0.0182357369
 H         -6.7102056274        3.1021998203        0.6424360513
 H         -6.8430721751        1.8920909773       -0.3436440633
 O         -2.4664681265       -0.0375212357        4.9110686245
 H         -3.0755807485        0.5675840111        4.4563719474
 H         -2.5239943980        0.1935153482        5.8538021614
 O         -2.7699356967        2.7345878825       -3.9179552125
 H         -3.3406592303        3.2639273456       -4.5119413516
 H         -2.3809945922        2.0587188099       -4.5069102376
 O         -1.8254634721       -2.8431822119       -1.1986547786
 H         -2.6203177613       -3.3971857288       -1.2233275122
 H         -1.1319045266       -3.3949506326       -0.7930929734
 O          7.7196723454        2.8784366159        5.3992289073
 H          7.7000016856        2.2698699244        4.6255151886
 H          8.6407539543        2.9553818373        5.6463258556
 O         -9.9300340294        1.4268228804       -5.1960270260
 H         -9.1437573481        1.5398152049       -5.7373536341
 H         -9.7362151903        1.9152781490       -4.3780280399
 O         10.9150525655       -2.7320949567       -1.2714936025
 H         10.9726337112       -1.8325134222       -1.6367056151
 H         11.2907060154       -2.6563035240       -0.3727737768
 O          9.2791651925        1.0722404902       -4.1185986088
 H          9.3421652536        0.2647834271       -4.6802234782
 H          8.5692614920        1.6000850248       -4.5189386197
 O          4.0373347315       -3.9764143620       -0.0862654972
 H          3.9287512332       -4.7917170125       -0.6203312464
 H          4.6537214792       -3.4203376799       -0.5960081163
 O         -4.7506861792       -2.6585810304        0.7419719951
 H         -4.3302623733       -1.9377949612        0.2365290365
 H         -5.2230396786       -3.2055486195        0.0895032288
 O        -10.0744807823        3.2933989159        0.0036889001
 H         -9.5152472543        2.4892628122       -0.0803763922
 H         -9.6588826328        3.9526090592       -0.5625991282
 O         -4.9452617357       -5.5902501794        3.6601205192
 H         -5.7929060088       -5.6607578815        3.2117404342
 H         -5.1023605828       -5.1472906105        4.5184188211
 O         -2.5616120951       -7.4058058801       -1.9976352229
 H         -3.4211865700       -7.4253166157       -2.4299224123
 H         -2.1477156659       -6.5808071965       -2.3240439948
 O          0.2272439394        5.7818376529       -0.0005246211
 H          0.0251343973        4.8912741460        0.3346607065
 H          0.6473262935        6.2820707560        0.7275699678
 O         -2.6880530035        0.7331278200        7.5530781972
 H         -2.6115213704       -0.0965954462        8.0393138710
 H         -1.7944666747        1.1079009454        7.4940867869
 O          4.8098075705       -3.7263495219        6.2436624949
 H          5.7077396057       -3.3731515270        6.2201932533
 H          4.4038100331       -3.4672413842        5.3835071810
 O         -5.1685229311       -4.3186163428        6.0303480595
 H         -4.3786148036       -4.7232164917        6.4095178446
 H         -4.9787510118       -3.3579317125        6.0868446815
 O         -7.4935677635       -6.0029023250       -1.7806255683
 H         -8.1736711422       -5.8646834500       -1.1067547565
 H         -7.9300046962       -5.7465321159       -2.6305071586
 O         -1.7092526101       -5.2549388726        0.5787707575
 H         -2.3201427472       -5.3079160137       -0.1702954121
 H         -2.2307563067       -4.8764162787        1.3102997907
 O         -6.3441682754       -3.6665985005       -1.1138760233
 H         -5.9253222498       -3.2531667771       -1.8935258724
 H         -6.7225945060       -4.5230256785       -1.3831930083
 O          7.3294027553        3.6357327623        2.4353585605
 H          7.1098750350        4.0087265958        3.3053063188
 H          6.5868819256        3.9425243086        1.8886427810
 O          5.0650868237       -1.7327298309        2.2223563027
 H          4.4195651781       -2.2692300676        2.7276488009
 H          4.6275052529       -1.4145306218        1.4149737290
 O         -9.0214980056        2.4325640908       -2.7968864271
 H         -8.1838059129        1.9934365238       -3.0407242712
 H         -8.7736584377        3.3240887202       -2.5123642256
 O         -4.7630287292        0.1497756695       -4.5992375262
 H         -4.5974973807        0.7500719906       -5.3565654640
 H         -3.9473896676        0.1171549957       -4.0482114968
 O          6.8117631075       -0.8518262368       -0.3316864521
 H          7.0954923089       -0.1988435831       -1.0080417332
 H          5.9149712296       -1.1600475115       -0.5286472418
 O          8.8270128506        2.2941339772        0.4840172572
 H          9.3911804125        3.0691852435        0.2968346648
 H          8.2458428128        2.5851873542        1.2020836634
 O          4.1484237457       -6.3178142510       -1.3130260219
 H          3.4865071626       -6.8086924560       -0.7812842952
 H          4.9912928738       -6.4464733913       -0.8400893107
 O          2.0298701829        2.7615608007       -6.9612240626
 H          2.2261397797        3.7000533674       -7.0527620613
 H          2.3115216020        2.5349171841       -6.0552542705
 O         10.1678857243        3.1918421104       -2.4218341094
 H         10.7209131161        2.7642776682       -1.7456813486
 H         10.0939852907        2.5605935175       -3.1491496601
 O         -3.7121992952        2.3101865452        0.8654666796
 H         -3.2555980266        2.1944515475        0.0107745141
 H         -4.3242949903        1.5639315125        0.9917110883
 O          9.3160811212       -1.2115245350       -5.5105057719
 H          9.5190905176       -1.9730448374       -4.9517827873
 H          8.4075697403       -1.3514840177       -5.8227910172
 O         -3.5494241160        6.1953713740       -4.3845144094
 H         -2.7684707154        5.7261405891       -4.7414773588
 H         -3.1602133700        6.9022729507       -3.8509245775
 O         -4.3774364885        1.5885511798       -6.8166915323
 H         -4.3602548984        2.5371999035       -6.6040939828
 H         -3.4431576150        1.3136523994       -6.7713065312
 O          1.7175586663       -0.0963914867       -4.4794451139
 H          2.4044863796       -0.6910182559       -4.0983657717
 H          1.8160695716       -0.1406799956       -5.4476918938
 O          0.6197671189        6.9081110105       -4.2247014308
 H          1.1442071102        6.5928959273       -3.4675735431
 H         -0.1811955759        7.2770425326       -3.8093838178
 O         -0.5708305768       -1.3077045653       -5.7618801975
 H          0.2412757259       -1.6000555052       -6.1862159117
 H         -0.4602675398       -1.4989877666       -4.8037492708
 O          3.8043620335       -1.3894664336       -3.6570849845
 H          4.4569225909       -0.6614896511       -3.7465177270
 H          3.9984498826       -2.0666193380       -4.3445434194
 O          7.2473512871       -2.6103908598        5.4104533332
 H          8.0859877027       -2.1198711412        5.4408962360
 H          7.3823878660       -3.3410831840        4.7723995687
 O          5.4930917102       -4.9987625587       -3.4596215915
 H          4.8480119296       -5.5283417842       -2.9686722554
 H          6.3703890126       -5.2003039960       -3.0683272229
 O          7.5010240220        0.9955285268        3.4950323375
 H          6.8580540711        0.4271446262        3.9718995251
 H          7.0498258992        1.2572448529        2.6614294299
 O         11.8864212416        1.8350939016       -0.7555237091
 H         12.7735285775        2.1652324981       -0.8924037556
 H         11.8917672273        1.4500839978        0.1713865836
 O          7.6925347433        1.1781323509       -1.7690528908
 H          8.3219940308        1.0831263347       -2.4958114295
 H          8.1382193049        1.6453912072       -1.0400759773
 O          2.0300116139        6.0372619413       -2.0312636324
 H          2.8291307984        6.0592339322       -1.4747169281
 H          1.2988837586        5.9267323208       -1.3973994717
 O          5.5807338109        0.5696963399       -3.4886995764
 H          6.3651601644        0.0745794417       -3.2042144622
 H          5.2006585481        0.9630564357       -2.6689717385
 O         -6.9907557992        0.7281416915       -3.2602892149
 H         -6.6415289223        0.7070759000       -2.3363427770
 H         -6.2200008241        0.5928878199       -3.8409666649
 O          2.2455785515       -2.7624658688        6.8291569609
 H          2.5359794929       -2.0480347536        6.2203703411
 H          3.0631532463       -3.2367333699        7.0271673450
 O         -7.9969956272        4.7158460028       -1.4509439848
 H         -7.2522576718        5.1639169865       -1.8714626201
 H         -7.6159117251        3.9387684561       -0.9531783014
 O          4.8719563476        4.4602741126        1.6378130704
 H          4.5107555802        5.0366323050        2.3313769818
 H          4.4538073620        3.5982624641        1.7565069325
 O         -1.3857502750        2.8538861760        4.8243309225
 H         -0.9252977844        2.2529329558        5.4400800251
 H         -1.5496048008        2.3526314578        3.9937506909
 O          9.4136785752       -0.3115989954        0.3486887497
 H          9.7106065435       -0.3266068695       -0.5769167822
 H          9.3021791834        0.6310681542        0.5670845525
 O          2.4891075232        1.5984046662        6.3357206511
 H          2.7200626745        0.6927155508        6.0180707150
 H          3.2931428400        1.9411940717        6.7315544439
 O          4.0337086769        7.8497914118        1.4775631953
 H          3.7252978343        7.2086147565        2.1516928736
 H          3.3001710984        8.4521977273        1.3451005588
 O          2.3505848357        5.0830069466        5.5067574197
 H          1.4304755353        5.0132983718        5.2143308963
 H          2.7840790818        4.2453046552        5.2802503004
 O         -7.5802580212       -0.8919826997       -6.6437575224
 H         -8.4062087775       -0.8510828831       -7.1254717147
 H         -7.4116681057        0.0244189103       -6.3262743712
 O         11.3633183599       -1.9181958317        1.2591289190
 H         10.5948068529       -1.3525225697        1.0277007206
 H         11.0465981139       -2.4850330415        1.9798828626
 O          7.3806525907       -1.4409107831       -3.1134229200
 H          6.7238162900       -1.9791890446       -2.6135322405
 H          8.1693158236       -2.0062598220       -3.2002267553
 O          2.8150610279       -4.2098271308       -2.9575457269
 H          2.2438369361       -4.1838888253       -3.7377170376
 H          2.5114822179       -4.9889449856       -2.4719038115
 O         -3.3639628519       -7.7584490953        0.6498454365
 H         -4.1887505727       -7.2514614186        0.5869933763
 H         -2.9518838331       -7.6881723047       -0.2263582424
 O         -7.1288531619        1.6804388585       -6.0721653219
 H         -7.0166034204        2.1963022062       -5.2568818571
 H         -6.2833500067        1.7261241751       -6.5364223581
 O         -1.6479518093        7.1004425448        2.8092769531
 H         -1.9650477706        6.3184978659        2.2875632162
 H         -2.3924972050        7.3262477685        3.3748745146
 O         -5.4007577638       -2.2703504749       -3.1470731373
 H         -6.1468402787       -2.4155033341       -3.7722100280
 H         -5.3032587995       -1.3219756961       -3.0295760324
 O         -5.2425168017        0.7553629664        6.4357981316
 H         -4.5318636863        0.9774081147        7.0491024704
 H         -4.9434490239        1.0917175957        5.5561239911
 O        -11.5143991220       -0.1893094340        0.7406278966
 H        -11.3137215650        0.2014048767        1.6050707535
 H        -11.9636968295        0.5236019786        0.2267107563
 O        -12.2299863268        1.7509863525       -0.9023736389
 H        -11.9370451277        1.3496653876       -1.7379780267
 H        -11.5864943008        2.4414914318       -0.6759245737
 O         -8.0105312840        6.0772236312        1.0250673871
 H         -8.3310369581        5.3626861782        1.6018991508
 H         -8.0485094913        5.7215142752        0.1208342838
 O         -8.6911737239       -5.0042132726       -3.9135738861
 H         -9.4908160667       -4.6906857794       -3.4637682727
 H         -8.2528718136       -4.1894699239       -4.2191851061
 O         -1.4318123235       -5.4134208014       -5.9546653269
 H         -1.7738888676       -6.0974011201       -6.5281512082
 H         -1.8798462688       -4.5808436488       -6.2067142729
 O          6.5679382898       -3.7863327258        1.3642662605
 H          7.2989125347       -3.4806272590        0.8016056185
 H          6.0971907099       -2.9726682591        1.6519990064
 O         -0.3972338031       -7.4430799572        1.3371175742
 H         -0.9839276870       -7.9216574106        1.9229098437
 H         -0.8851318258       -6.6242879507        1.0811899630
 O         -5.5038899350        6.7024082843        1.5720179098
 H         -5.2947879895        6.7566772008        2.5098349454
 H         -6.4801669462        6.6171848448        1.4651748644
 O         -5.0065859487       -1.9542598462       -6.2098311531
 H         -4.8873229179       -1.2296066746       -5.5517171493
 H         -5.7790344197       -1.6920391965       -6.7212414341
 O          5.3854939535       -2.7651888157       -2.0287471610
 H          4.6603426116       -2.2525594078       -2.4390501800
 H          5.4068444113       -3.6040330298       -2.5433519589
 O          4.0037222729       -5.2349331648        2.2639588602
 H          3.0662959364       -5.4880357013        2.1961937007
 H          4.2113170259       -4.7601467706        1.4316042220
 O          1.0362610234        7.3612423223        2.0342034074
 H          1.6488265399        6.9803282462        2.6796939914
 H          0.1703037376        7.4128996831        2.4595684094
 O          4.9854820671        3.8660761554       -5.8010635910
 H          4.2625772560        3.3484351409       -5.4176485692
 H          4.9625142500        4.7203365306       -5.3585394142
 O         -2.6792581008       -7.1036514129        3.1742510296
 H         -2.9084469490       -7.3756281183        2.2628695079
 H         -3.4902599929       -6.7043212563        3.5177471964
 O         -9.7919042716       -2.3011286828        1.4439050300
 H        -10.5002872307       -1.6772878372        1.2401072788
 H         -9.5394032114       -2.1547421087        2.3775476474
 O          2.0974318550       -2.6195510506       -6.6133298271
 H          2.9746715543       -2.9150010844       -6.3179100314
 H          2.2338830923       -1.7470026787       -7.0089027041
 O          7.5695934351        3.9695458560       -2.6756983834
 H          8.5139606446        3.8200951289       -2.5066839096
 H          7.3611065551        3.4427771408       -3.4767427374
 O         -7.0055724978       -2.0610487676        2.0557428060
 H         -6.1607325727       -2.3084757916        1.6367593116
 H         -7.0616081580       -2.5671571659        2.8737112231
 O         -3.3574504401        4.2705762080        5.9117216265
 H         -4.0195629404        3.6791684809        6.2693970639
 H         -2.6431291241        3.7028759466        5.5483364347
 O        -11.2456085301        0.1845896993       -2.9900150232
 H        -10.3773096582       -0.2620483037       -2.9080828383
 H        -11.2290681105        0.5723568826       -3.8710395321
 O         -0.7066200421        2.9807826691       -7.2137752741
 H          0.2610434784        2.9056177653       -7.1339621152
 H         -0.9608204532        3.8114907139       -6.7872247465
 O         -4.3892416504        7.2563918323       -0.8079032090
 H         -3.4636361635        7.4874464544       -0.6105956626
 H         -4.8424930609        7.2489817617        0.0516187449
 O         -7.6061621539       -2.5916839673       -4.5642114633
 H         -7.5971456918       -2.0566966989       -5.3808237908
 H         -8.1480803131       -2.0676029999       -3.9281642335
 O        -12.2762999802       -1.8949709556       -1.4404351944
 H        -12.1654087145       -1.5021603620       -0.5667180080
 H        -12.1639974560       -1.1638672756       -2.0680594536
 O          4.1813330202        6.0233787453       -4.0202989872
 H          3.4846994341        6.5040610064       -3.5597926529
 H          5.0168007196        6.2395677503       -3.5272646329
 O          6.6109634415        6.8715592460        2.4235768358
 H          5.8067661624        7.3598640550        2.2168160716
 H          6.4216620358        6.3081812956        3.1900576647
 O          9.8996514318        4.7106955049        0.0648082327
 H         10.1290157365        4.7275853104       -0.8670091714
 H          9.0030618459        5.1044613759        0.1428798270
 O          1.4997676887        4.2401430387        2.2974334123
 H          0.7707135276        4.6321284609        2.8236398788
 H          1.6174312705        3.3711028014        2.7374591503
 O         -5.5223798081       -6.1185609443        0.2869741294
 H         -6.1213499572       -6.4167851601       -0.4048405804
 H         -6.0938291764       -5.7692053436        0.9966824581
 O          9.8430220052       -3.1318905555        3.1697448354
 H          9.1088451143       -2.5808573045        2.7938822578
 H          9.4047155392       -3.9484312912        3.4336815985
 O         -2.3519410153       -2.0657100300        7.9970826208
 H         -1.5195739582       -1.8211158089        7.5406465315
 H         -2.4197087846       -3.0252688043        7.8530060287
 O          4.5707483990       -6.3147361887        5.5051361627
 H          4.7290999516       -5.4254986034        5.8861462501
 H          5.2190503649       -6.4363242503        4.7988619593
 O         10.6519204139       -0.1574308872       -2.0569214683
 H         10.2463562848        0.2019281997       -2.8560930242
 H         11.2224735991        0.5374739095       -1.6753423732
 O          7.9701900659       -1.5159918002        2.2897568847
 H          7.9679626133       -0.7469712902        2.8725691608
 H          8.2370917132       -1.1834682185        1.4194646674
 O          3.6356790930       -3.1992479359        3.9179317462
 H          2.6761472079       -3.0114574711        3.9710894213
 H          3.7429377871       -4.0449632809        3.4356379705
 O          9.5649623857       -1.1369887101        5.0306437529
 H          9.9207003024       -0.3125340241        4.6830306377
 H          9.9080486841       -1.8431107648        4.4542662823
 O         -9.2086393428       -4.5546532115       -0.0245597598
 H         -9.5986209612       -4.2561869369       -0.8689906020
 H         -9.5022450511       -3.8767118375        0.6047988054
 O         -0.0124192382       -8.2486229729       -1.1434182506
 H         -0.8818139966       -8.2567029938       -1.5623375162
 H         -0.1954364537       -8.0483156701       -0.1949076377
 O          6.5346070034       -1.4733872997       -5.6466806895
 H          6.0261175636       -0.6714426407       -5.8436716962
 H          6.7950893720       -1.4181642020       -4.6966562959
 O         -4.4023864594       -1.7831082620        6.2525265137
 H         -4.8206403387       -0.9103277905        6.3967552542
 H         -3.6724103333       -1.8478785420        6.9000955593
 O         10.2086230287        1.3467949054        3.4252337176
 H         10.2903284566        2.3152895260        3.3150635826
 H          9.2595959568        1.1708439026        3.3250629919
 O         -2.5800462783        4.9157922528        1.6817147344
 H         -3.1014129139        4.8755933316        0.8517576645
 H         -1.8228532151        4.3225364689        1.4970862980
 O          1.4836845450        2.1016485269        3.8178903797
 H          0.7939443082        1.4204214677        3.8133120840
 H          1.8645772446        2.0918741351        4.7088344304
 O          6.9951854200        2.4331970728       -4.7733726972
 H          6.3831746653        3.0081815645       -5.2716503674
 H          6.4307378792        1.7638733709       -4.3242905658
 O         -5.8577477834        3.8836471522        4.1210222954
 H         -5.4228569250        4.7097070695        4.3684755539
 H         -5.8758648995        3.9001097021        3.1313988861
 O         12.1034886768        0.7372997684        1.5795376421
 H         11.4380541604        0.9570040886        2.2621195676
 H         12.0935660670       -0.2307193423        1.5076809092
 O         -5.5865564643        4.0030259346        1.5268044610
 H         -4.7847998700        3.5060009486        1.2484716803
 H         -5.4294064489        4.9472074039        1.3519074255
 O          6.1034791090        4.9876461966        4.4661478985
 H          5.2817452876        4.4529328337        4.4305449801
 H          6.6350917693        4.6019326561        5.1697045887
 O         -4.3955848113        1.6581791794        4.0792775762
 H         -4.7766017102        1.2354942489        3.2793576461
 H         -4.8173085344        2.5388445555        4.1287356903
 O          2.1360853726        5.2638372540       -5.7610835900
 H          2.9775227442        5.4909751029       -5.3458154023
 H          1.5329889616        5.9713102344       -5.4842522995
 O          4.8672868939        0.7250929993       -6.2226581991
 H          4.4352987173        1.1505071310       -5.4515281310
 H          5.3004691693        1.4303279909       -6.7064211781
 O          4.5275187588       -3.2265045402       -5.4155207584
 H          4.7921691787       -3.9659448376       -4.8441933220
 H          5.3477575935       -2.7471016246       -5.6599243225
 O          3.8085142575        3.7015228906       -2.5813834948
 H          3.9090352145        4.5454549915       -3.0485197111
 H          3.4471176861        3.9073724749       -1.7093737577
 O         -0.6939416605       -0.4125562393       -0.3587663418
 H         -0.4268221651       -0.6814658891        0.5233374280
 H         -1.0576343350       -1.2100063022       -0.7796507943
 O          1.6404423764        0.8359829530       -1.3297035976
 H          1.9622316212        0.0442647917       -1.7705380707
 H          0.8709414172        0.5353711989       -0.8287341689
 O          5.2824360841       -0.9959038304        7.4066379612
 H          5.1542382246       -0.0697888704        7.6189500799
 H          6.2240625868       -1.1605169967        7.3437873600
