  612
      -1033.77974749
 H         -2.4382295315        1.5441012341       -2.2162083525
 C         -2.2792683110        1.4872813148       -1.1417609214
 H         -2.6792351025        2.3769708811       -0.6710737580
 C         -0.7929404498        1.3860388103       -0.8781628236
 H         -0.5893461810        1.3234209756        0.1871494354
 H         -0.3008933750        2.2607297496       -1.2844611313
 O         -2.9202372249        0.3160557230       -0.6481533948
 H         -3.7785096468        0.5504126015       -0.2382266508
 N         -0.2689533682        0.1890181928       -1.5513468580
 H         -0.5882804566        0.1970138510       -2.5456248350
 H         -0.6244056071       -0.6651830122       -1.0700343648
 H          0.7748083012        0.1804049826       -1.5282526342
 O          6.1679909989       -0.2060377415        0.7261339195
 H          6.8708321673       -0.7797817043        0.3721967805
 H          5.5066890660       -0.8292021492        1.1089102704
 O          1.8175122734        2.1702295626       -1.8706881648
 H          2.5042957645        1.8107241270       -2.4441568002
 H          1.7330192063        3.0944556274       -2.1606946580
 O         -1.2591192472        0.3322905308       -4.1205565388
 H         -0.9261101050       -0.0511481044       -4.9484390548
 H         -2.2206850401        0.2070357989       -4.1438871730
 O          2.9464458018        3.3412460045       -5.6246161277
 H          2.2472456877        2.8710239648       -5.1128761954
 H          3.4185809007        2.6498412407       -6.1182309477
 O          1.8895233886        1.1178917338        0.6938355580
 H          1.8906832377        1.5581622840       -0.1743539821
 H          2.7097899926        1.3861356365        1.1479471157
 O          2.3513898341        2.8242732052        3.8408987184
 H          1.6847385334        3.5253876283        3.7010215744
 H          2.7687868792        3.0198702519        4.7007697707
 O         -2.8985419050       -3.3145975480        4.9650972872
 H         -3.6190656016       -3.8755575539        4.6285178758
 H         -3.1475464705       -3.1215456542        5.8882712473
 O         -1.1508883340       -2.0307655503       -0.2263100667
 H         -1.0347198485       -2.2576105719        0.7147955160
 H         -2.1230741038       -2.0113016575       -0.3559252309
 O          4.6518680197        4.5947483961        2.0235184627
 H          4.4354923453        4.1658752300        1.1671558469
 H          5.6193212950        4.6188392848        2.1037360849
 O         -0.3290449270       -1.9747349547        4.6702323313
 H          0.2000147864       -1.2414161942        5.0018687328
 H         -0.6052231378       -2.4917836693        5.4481685765
 O         -1.0691656438        7.1238824993       -2.9528350431
 H         -0.9582453512        6.3188522601       -2.4014053511
 H         -0.9153967432        7.8588520685       -2.3543635724
 O          2.3238011911       -0.4883936605       -1.6774111017
 H          2.3114874450       -0.4148987895       -2.6490296333
 H          2.1419458173       -1.4179381746       -1.4515315130
 O         -0.5404950984        4.9320575884       -1.4126033766
 H         -1.1869295399        4.6660305570       -0.7143855294
 H         -0.7095675504        4.3323028343       -2.1738422867
 O          3.8983609784        0.0054289924        4.1207742704
 H          4.0882539430        0.5263446067        3.3170408077
 H          2.9520205288        0.1599744068        4.3324614377
 O          0.2458486212       -0.2743155616        2.4040123257
 H          0.4670098279       -0.0470925155        3.3167048212
 H          0.6365967877        0.4355694238        1.8680524764
 O         -0.3206353292        2.5194498016        2.0739069864
 H          0.4959961312        2.9148125575        1.7417419302
 H         -1.0228243154        3.0569083204        1.6696796898
 O         -1.1071958848        3.4048370414       -3.4811967072
 H         -1.2180649742        3.9765044090       -4.2669472826
 H         -0.3892035245        2.7875304912       -3.7398738499
 O          0.3539276605       -4.2728568554        0.5610768361
 H          0.8817568276       -5.0762061968        0.4527715851
 H          0.5400584643       -3.9538626316        1.4689436085
 O         -3.6171193112        4.8857111452       -1.8826126161
 H         -4.5767993243        4.8672606677       -1.8102957616
 H         -3.4252246993        5.2380110336       -2.7705721430
 O          7.6719231672        3.6393184748       -2.6601568208
 H          8.6270055171        3.6815670369       -2.7529393844
 H          7.4707005044        2.7909800993       -2.2181640399
 O         -0.3839481066        2.1722684586        6.7295317699
 H         -1.1880404907        2.4296967834        7.1843134542
 H          0.1520262737        2.9908049271        6.6579022095
 O         -0.3940156303       -0.4764063885        7.7095473143
 H          0.0505539311        0.3828298563        7.6669847838
 H         -1.3402602906       -0.2801367373        7.5414279565
 O          6.2697634488        2.7166041544        0.4744992847
 H          6.3281243122        2.1537412415       -0.3134660548
 H          6.9980298029        2.4485527235        1.0634297621
 O          4.7430454199        5.2606874081       -4.9247672018
 H          4.8219206542        5.1716265390       -3.9515083512
 H          3.9927695456        4.7155645516       -5.2169896955
 O          1.1815455874       -3.5190521538        2.9708446330
 H          0.7100212777       -2.9096982247        3.5627790820
 H          1.5533981738       -4.2111071283        3.5624105878
 O         -7.8674971051        2.1023375980        2.6512705540
 H         -7.6112437671        1.2211395196        2.3231680790
 H         -7.0383647603        2.6293283928        2.7337208199
 O         -1.9420521234        4.2109007738        0.6703399345
 H         -2.8923706087        4.0588847230        0.5135031769
 H         -1.8664721257        5.0236368984        1.2164023706
 O          4.3197053648       -2.1456779908       -0.6494939569
 H          4.3210292621       -3.0652588432       -0.9501750031
 H          3.5196926121       -2.0245061435       -0.1222449099
 O          8.2838465376       -3.0752782714        2.7471627266
 H          8.4887726221       -2.1988516681        2.3665929415
 H          7.4442483908       -2.9726849476        3.2481802665
 O         -8.3782832174       -3.1002069133       -4.6974142613
 H         -8.9168700023       -2.7061766914       -5.3921749325
 H         -7.7211336017       -2.3849858494       -4.4762059339
 O         -5.7000964564        5.9989307442        0.5116517487
 H         -6.0171635709        5.9040896541       -0.4005443197
 H         -6.4999453205        5.9222875124        1.0849055419
 O         -5.1696486613        0.6759503943        3.6007197375
 H         -5.9239735682        0.6131365696        4.2032313536
 H         -4.4603330142        0.1391897250        3.9989877234
 O         -7.7558868031        5.6475941198        2.1196433188
 H         -8.3937544351        5.0135231649        1.7676959371
 H         -7.6836734557        5.4640856828        3.0755162209
 O          1.6951432609       -4.3474589828        6.9714701010
 H          1.7541112693       -3.3733406775        6.8572875656
 H          0.7714095549       -4.4916473902        7.1950432201
 O         -3.7394025539       -2.6142241306        7.4404850599
 H         -4.6710097087       -2.5119711178        7.1795980293
 H         -3.4509139291       -1.7048636056        7.6204290505
 O          5.0149384975        4.7156636755        4.7996507380
 H          5.7147122860        4.0401046051        4.7556527086
 H          4.6718642257        4.7989397146        3.8990838589
 O          8.4878973660       -3.2774463634        6.6803099450
 H          7.8140910186       -3.9534841786        6.7645265587
 H          8.0115170644       -2.4333493815        6.6965494929
 O          4.6773472191       -1.8466562575        2.0702115174
 H          3.7293053332       -1.7405048594        1.8572276969
 H          4.9616296437       -2.6689197815        1.6227411164
 O          4.2185744337       -0.6469468085       -4.8840926934
 H          5.1509475460       -0.9466758964       -4.8617913815
 H          4.1637710754        0.1066635249       -4.2414620724
 O         -3.0852427136       -0.6688456516        4.6332342374
 H         -2.8642607065       -1.6220877191        4.5928512516
 H         -2.3178161452       -0.1382150735        4.3535650584
 O         -3.7448267153        2.8603355238       -3.8821157413
 H         -4.1834752969        2.7751578756       -3.0073380650
 H         -2.8053235949        3.0561814874       -3.7022059202
 O         -6.2220172250       -2.0498466855        6.3672442526
 H         -6.8803290556       -2.7192235923        6.5576302224
 H         -6.0821461175       -2.0845877158        5.3913538181
 O         -5.9239465862        2.9023885443        5.7182096779
 H         -6.3730713457        2.0505965814        5.7882463710
 H         -4.9769455167        2.7310643230        5.9050107090
 O          6.1112807748        2.9320958414       -4.7178256165
 H          6.7706166104        3.2183419116       -4.0552515971
 H          5.7267670477        3.7605745793       -5.0639758208
 O         -0.3481399433       -0.5765791009       -6.5460951782
 H         -0.3556960251        0.2886356113       -6.9726979429
 H          0.5459854392       -0.9246293258       -6.6566633208
 O         -1.5085322849       -2.8466246892        2.3087183940
 H         -2.4711038266       -2.6672375938        2.3334185801
 H         -1.1295279569       -2.3628514159        3.0573348959
 O          2.2320143774       -1.5197934815        1.0192101487
 H          2.1229931169       -0.5691736277        0.8007507123
 H          1.5142512737       -1.7249909879        1.6294611483
 O          5.9283256177        6.9078931520       -0.8452256494
 H          6.6747592533        6.3941432011       -0.4916498882
 H          5.3944025561        7.2062446637       -0.0976733305
 O         -1.9811056346        4.7167698778        6.4093445639
 H         -1.0724985544        4.8824646532        6.6776840705
 H         -1.9907303941        4.7807867975        5.4330004415
 O          1.5068726975       -3.0253379077       -1.5226213554
 H          0.8071340263       -2.8704578958       -2.1901235389
 H          1.0586302630       -3.2787462267       -0.6867270944
 O          0.9357334001        4.4755786363        6.4691480240
 H          1.8683502565        4.2774463323        6.6080484135
 H          0.8453010968        4.7061742807        5.5191673659
 O          6.1693079346       -3.8023569434        0.8535489243
 H          5.6475618012       -4.0760530413        0.0908164835
 H          6.8642178830       -3.2069805000        0.5095864337
 O         -3.9932790004        0.2571995760       -4.2088853709
 H         -3.9861538051        1.2379180916       -4.1425291418
 H         -4.5454574124       -0.0665572700       -3.4725153422
 O         -4.5501238054        3.5321195036        0.4713634969
 H         -5.0284321837        4.3728418968        0.5796232588
 H         -4.3854233681        3.1648468899        1.3604638713
 O         -1.6547927265        4.5647845528       -5.8066262275
 H         -2.1465195516        3.8721301967       -6.2736644361
 H         -0.7910723939        4.6642554167       -6.2492820852
 O          6.7564535085        2.6103218452        4.7664545076
 H          7.7204997644        2.6627927084        4.9233124136
 H          6.6407044712        1.9090465070        4.0977464126
 O         -1.0505838582       -3.2832293648       -5.8629695845
 H         -1.8452239914       -2.8058568336       -6.1866931851
 H         -0.3790322247       -3.2274057474       -6.5449986392
 O         -9.2856089307        3.5350035667        0.9740277019
 H         -8.7796660249        3.0076052577        1.6391534418
 H        -10.2011650473        3.2359528331        1.0737672947
 O          1.3258829964        4.1778749155        0.5028930022
 H          0.7713160208        4.3515646788       -0.2742040344
 H          2.2238893405        3.9748623692        0.1725851478
 O         -5.7855297804        6.4179136264       -4.4638837429
 H         -6.0362363043        7.2610979373       -4.8391633813
 H         -4.8069645670        6.4285048992       -4.3612242879
 O         -2.6453065106       -6.7441011924       -2.9984983217
 H         -1.7897029509       -6.8935971459       -2.5714597184
 H         -2.4668297000       -6.4795965108       -3.9204648206
 O         -1.3638596843        1.3887321555        4.3581312188
 H         -0.8308396740        1.5872435857        5.1495105775
 H         -0.9523376224        1.8399344890        3.6008117951
 O          8.2322280463        2.2637388319        2.2239640077
 H          7.9691812321        1.4592403006        2.6950273663
 H          9.2073076115        2.3406809027        2.2885843836
 O         -7.3329264553        1.8368013452       -0.2369856252
 H         -8.0533841593        2.4436482841       -0.0379684419
 H         -7.6103927379        1.2731993675       -0.9768621626
 O         -2.0793813363        4.4783124702        3.7291183737
 H         -2.5002914572        3.6793872253        3.3381225207
 H         -2.5445505158        5.2337051774        3.3480539730
 O          0.2317499490       -5.1663966953       -4.0041134881
 H         -0.2865356561       -4.6931729712       -3.3181321010
 H         -0.3841127155       -5.7292335676       -4.4784690797
 O         -6.7387395512       -2.8214166148       -1.5044894492
 H         -7.6851307408       -2.7383443656       -1.7263012432
 H         -6.2926643396       -1.9945867660       -1.7734641539
 O         -7.2729451885        2.6026174498       -5.7440197405
 H         -7.2948883420        2.6408581889       -4.7682391156
 H         -6.4875223561        3.1280932199       -5.9895141915
 O          6.6601541173        0.3692472268        3.2727662326
 H          6.4248840966        0.2105911986        2.3320755621
 H          6.5256619235       -0.4582853075        3.7373247885
 O          9.1284330132       -0.5715776608        2.1745219906
 H          9.0485837388       -0.3590709157        3.1309207939
 H         10.0821333002       -0.4878569243        1.9823702881
 O          5.1507851592        1.0365863319        6.1770439998
 H          5.8195051983        1.6561242830        5.8154159832
 H          4.6873360852        0.6548061084        5.3826615951
 O         -6.7811184188       -3.1738443573        1.0983375000
 H         -6.7687992761       -2.9709175984        0.1364970951
 H         -5.8728052484       -3.4304328138        1.3331443776
 O          1.3731890540        0.5600431386        4.7786684664
 H          1.4435923290        0.6913263152        5.7430798638
 H          1.5599549156        1.4405280449        4.3770293379
 O          0.5699261996        4.8016576350        3.8487836129
 H         -0.3861927914        4.6326901189        3.7059327779
 H          0.8122786815        5.5358526102        3.2575335343
 O          1.7457185252       -1.6966648696        6.6013740738
 H          2.5452240115       -1.3851209514        7.0696379591
 H          0.9945373174       -1.2662314467        7.0439830904
 O         -7.1876625671        2.8834241050       -3.0579924388
 H         -8.1134364699        2.7518041126       -2.7768455497
 H         -6.9388326096        3.7876672907       -2.7933154826
 O         -4.4130304988        5.8884692429        2.9407975354
 H         -4.7850069029        6.5529599420        3.5198687295
 H         -4.6628794555        6.1233514313        2.0366238577
 O         -5.2336323043       -0.6622256232       -1.9544932191
 H         -5.3285712156        0.2598891779       -1.6622431015
 H         -4.6622941198       -1.1180994601       -1.3033615335
 O        -10.1034740073        0.2694516943       -3.9203062820
 H         -9.8658963024       -0.1792492458       -4.7517962064
 H        -10.7082059391       -0.3133553992       -3.4341556439
 O         -2.2240618730       -5.2509347581        0.5507364958
 H         -1.9354693245       -6.1410945476        0.8328981215
 H         -1.4071315337       -4.7199314770        0.5312416123
 O          0.7245950913       -6.7469927081        2.8101275008
 H         -0.0440147402       -6.1839583721        3.0268869261
 H          1.3688104624       -6.5135529656        3.4988311890
 O         11.6917177563       -0.0096184810        1.5501498378
 H         11.7688345222        0.0066798057        0.5721402566
 H         12.1516904074       -0.7889020713        1.8844024209
 O         -3.1095717750        7.0464188146       -0.3501640027
 H         -3.1481589597        6.2244266079       -0.8856709963
 H         -4.0027281926        7.1535791203       -0.0137260600
 O          3.3567972127        7.5292044023       -3.9223852560
 H          4.0101692678        7.0129935943       -4.4142319468
 H          2.4943153416        7.3011311478       -4.3116767588
 O          0.8864933437        4.7097669610       -6.7876040390
 H          1.6801626423        4.2120605779       -6.5092011050
 H          0.9281520315        5.5061394909       -6.2271776836
 O          5.1618515537        4.8525622070       -2.2888273149
 H          6.0544789114        4.4837004349       -2.3560274211
 H          5.2991346196        5.7267133434       -1.8481558367
 O          6.8086964819        0.8554882614       -6.2592644122
 H          6.5658885029        1.6374839058       -5.7187916595
 H          6.1379592448        0.8482510080       -6.9483840478
 O          5.6416547149       -0.8256273879       -2.4929054017
 H          6.1535273373       -1.4436232948       -3.0192145612
 H          5.1479047941       -1.3237082023       -1.8091649532
 O         -3.0392572910        2.5508810690       -7.1707635995
 H         -3.3946251927        1.6429784554       -7.1259937546
 H         -3.8085457594        3.1204344712       -7.0259024585
 O          9.7862589292        3.2980628919       -0.1110013797
 H         10.0770813574        3.1891057979       -1.0296799171
 H          9.0926990372        3.9895143223       -0.1057971206
 O          7.0028510216        1.2341045171       -1.7761352364
 H          6.4126245740        0.4594556657       -1.9711847469
 H          7.7012589415        0.9135370783       -1.1606129103
 O         -3.8326002603       -2.2726452434       -0.3410360837
 H         -4.0301477551       -2.2904571704        0.6173309997
 H         -3.9236562233       -3.1614183481       -0.7048088861
 O         -3.7475113852       -4.3712112457       -2.1524515274
 H         -4.0276897489       -3.7677067630       -2.8597920723
 H         -3.5792586089       -5.2419269264       -2.5503468867
 O         -7.2945186097       -0.4472859466        1.8670736022
 H         -7.8506015496       -0.7592787201        1.1185655883
 H         -6.4224489992       -0.2362148829        1.4669516396
 O         -4.6000259517       -5.1778087537       -6.7074393461
 H         -5.2385217568       -5.1396572092       -5.9681005806
 H         -4.9623240748       -5.7841304113       -7.3525144689
 O          3.4748858462        3.2233788087        6.2948778402
 H          4.0373667161        3.9302893389        5.8976224238
 H          4.0768778157        2.4629975056        6.4034898357
 O          8.9661976622        0.7515126271       -0.1542713568
 H          8.8436527376        0.3063342637        0.7054690142
 H          9.2190943706        1.6838947493        0.0267044738
 O          0.8533390921        2.0691942366       -4.6649744097
 H          1.0868039136        1.1555775724       -4.3969225759
 H          0.3824287122        1.9999709434       -5.5134559397
 O          8.5422758266        0.6067791731       -3.8813388205
 H          7.8640297136        0.8964856067       -3.2316620012
 H          8.1582110680        0.7155347252       -4.7560021164
 O          1.9942630905        1.0690578914        7.4022933917
 H          2.3393971298        1.9640379113        7.3340320700
 H          2.6675655527        0.5284401723        7.8298568648
 O          0.9604323155        6.3590641373       -4.6392809307
 H          0.2092844163        6.7650145592       -4.1781543173
 H          1.2573896551        5.6297995480       -4.0533277675
 O          4.3507382440        1.0305643496       -0.8167198543
 H          3.6191440387        0.4109824501       -0.9878819644
 H          4.9928457966        0.5589716883       -0.2556176916
 O         -6.4952197294        5.3273145133       -2.0592215594
 H         -6.3780198772        5.8344717985       -2.8812700752
 H         -7.4504320133        5.3659892811       -1.8113826421
 O         -0.9134486942       -3.1661515646        7.1354017244
 H         -1.8295736701       -3.3169919712        7.3886052730
 H         -0.6683063879       -2.3316037782        7.5600519327
 O        -10.6106083671        0.8049975485       -0.5635827796
 H        -11.2138282670        0.2243007864       -1.0472106705
 H        -11.0976003602        1.2598793273        0.1515122513
 O          1.7226373403       -4.1638539415       -6.0727233604
 H          1.1544137042       -4.4306511309       -5.3279855666
 H          2.5780138880       -4.5877049527       -5.9026846098
 O         -6.3823686363       -5.4524854945       -2.0103568637
 H         -5.6317092645       -5.8893539238       -1.5681787379
 H         -6.3304873872       -4.5027792504       -1.7799352345
 O         -1.4406407840       -5.2081677707        3.4775699241
 H         -1.4319896983       -4.4003221463        2.9075027335
 H         -1.6300288090       -4.8584512477        4.3552239523
 O         -1.1127859915       -4.1908759326       -1.8607915262
 H         -0.9922685144       -3.4411749167       -1.2455251286
 H         -2.0821524365       -4.2276885234       -1.9825956213
 O         -5.7043159646        3.4746558326        3.1204020869
 H         -5.7666784535        3.2875390362        4.0785841964
 H         -5.3421011243        4.3728770646        3.0544180844
 O          6.8769921636       -3.9971007011       -3.0735525163
 H          7.4598524981       -3.2206758051       -2.9783070596
 H          6.8010149650       -4.1455183146       -4.0292229687
 O          7.3225771633        4.7387788395        2.7503010836
 H          7.4186818342        5.0476760266        3.6513106984
 H          7.6696600348        3.8216721281        2.7135684246
 O         -0.1241943627       -2.2888965327       -3.5367675748
 H         -0.9963027618       -2.0231650815       -3.1691522428
 H         -0.3469392689       -2.7126867703       -4.3857091355
 O          3.7980529256        3.6186613200       -0.3258690301
 H          4.2264493448        4.0987420304       -1.0601648706
 H          3.9652389213        2.6681432036       -0.4886660431
 O         10.8701585028        2.4974681013        2.3186440140
 H         10.8510118569        2.9753127784        1.4767280767
 H         11.2896765596        1.6405214400        2.1332191093
 O         -2.9800033381       -0.0050742314        7.1737291419
 H         -3.2048103840        0.9357481936        7.1280706211
 H         -3.0478706876       -0.2920751407        6.2291517938
 O          8.5474833803       -1.8805242088       -2.7574206228
 H          8.5364705220       -1.0467344295       -3.2681886354
 H          9.4817238879       -2.1232739746       -2.6455846879
 O          6.0672642483       -2.6604752245        4.1258389572
 H          5.4769921413       -2.2506143594        3.4559369200
 H          5.6704173763       -3.5466758314        4.2420549260
 O        -11.4341512385       -1.3614078685       -2.1238477452
 H        -10.6531652625       -1.9659596874       -2.0567258298
 H        -12.2020349936       -1.9234602423       -2.2203747032
 O         -4.2195541227        0.0920028694       -6.8377500732
 H         -3.8648863352       -0.7796737040       -7.0622072266
 H         -4.1477954658        0.1346905175       -5.8568657138
 O         -2.1770604227       -5.7016434464       -5.4387686747
 H         -3.0145581399       -5.6586801134       -5.9227653348
 H         -1.7640854209       -4.8244385358       -5.5745140150
 O         -4.5647564225       -4.5730285230        1.5094151047
 H         -3.6340576888       -4.6940578384        1.2220667881
 H         -4.9995684345       -5.4364354975        1.3641011584
 O         -3.5081462337       -2.5594369335       -6.5736407470
 H         -3.8366620635       -3.3880555761       -6.9433847337
 H         -3.8819472195       -2.5364577310       -5.6635308252
 O          6.4782054658       -6.2414099145        1.8990619684
 H          6.4298290487       -5.3192346574        1.5516494907
 H          7.4097677480       -6.4721527005        1.8986005863
 O          9.1942288251       -0.2614177237        4.8046947266
 H          8.3760819842       -0.4653055976        5.3049320597
 H          9.7384153080       -1.0699971184        4.8733702778
 O         -3.3254977738        2.4044186371        2.6101564935
 H         -4.0571432725        2.1330787782        3.1844150147
 H         -2.8238601846        1.5853439086        2.4107929074
 O         -9.3255928741       -2.9474038464        2.0950501566
 H         -9.5931525560       -3.8617055353        2.1945595781
 H         -8.3741502569       -2.9743963593        1.8798721010
 O         -0.2708272139       -6.6926692130       -1.3765640975
 H          0.6931316600       -6.6438392795       -1.3764562026
 H         -0.5761190269       -5.7578980649       -1.3897052122
 O          6.7115454152       -1.5722000436       -5.0093430910
 H          6.7455360626       -2.4056601880       -5.4945055981
 H          6.9563145995       -0.8441202307       -5.6036144587
 O         -9.1540553105        2.6062148428        4.9217455888
 H         -8.7140387781        2.1094767106        5.6157657879
 H         -8.6584084982        2.3995119322        4.0962303947
 O         -1.6528137263        6.5617512154        1.8647097045
 H         -0.7183349731        6.7929580897        1.8837434189
 H         -2.0574021877        6.9720206789        1.0759506145
 O          4.1199069922       -5.0176131743       -5.0051284295
 H          3.9329887076       -4.2701234200       -4.3881562206
 H          4.2333499401       -5.8080840031       -4.4555069031
 O          2.2211067276       -5.5042430227       -2.2679188496
 H          1.9962563194       -4.6523091098       -1.8425864842
 H          1.6273038581       -5.5392048018       -3.0380765167
 O         -6.2909457113       -4.8588632131       -4.6108256398
 H         -7.1321710937       -4.3831027085       -4.7336457378
 H         -6.3306443052       -5.2369748341       -3.7028307243
 O         -2.5023778175       -1.6740552677       -2.6577074374
 H         -3.2482511817       -1.8662883678       -3.2306902643
 H         -2.7621818289       -0.9682344051       -2.0505823987
 O         -3.2176897467       -7.1701589691        2.8588666192
 H         -2.5964431834       -6.4456571726        3.0855148803
 H         -2.6985139433       -7.7543005300        2.2958996401
 O        -11.6657415252        2.1947245251        1.4572953953
 H        -11.4360495554        1.7534118390        2.3263782256
 H        -12.5381033275        2.5692299459        1.5742720374
 O          0.4564252801        7.3872631621       -0.5916214671
 H          0.7016417694        7.3551489205        0.3480756662
 H          0.0805408685        6.5136793771       -0.7847573220
 O         -4.6587694384       -2.7946243293       -4.1765133293
 H         -5.2129232591       -3.5763519654       -4.3968794822
 H         -5.3152205040       -2.0707286404       -4.0679903464
 O          7.5680868054       -5.6731901822       -1.0022290725
 H          6.9139821094       -6.3741954571       -1.0053176839
 H          7.4013557007       -5.1167476791       -1.7807875272
 O         -7.9265706448       -5.5403741500        1.5014535682
 H         -7.4506956372       -4.7090620660        1.2638538422
 H         -7.2599912365       -6.2418045512        1.4923177264
 O         -9.3340274632       -0.9716986618       -6.2620250688
 H         -9.8610599388       -0.6819182342       -7.0064383980
 H         -8.4377883972       -0.5978935364       -6.4059410323
 O          7.9511375917       -2.0313933531       -0.1497696128
 H          8.8404872854       -2.2105409626        0.1989055341
 H          8.0604262739       -1.9414618688       -1.1153280468
 O          9.4396021902        2.4665091634        4.8950162942
 H          9.5004839525        1.5005483791        4.9874735247
 H         10.0812815700        2.7083439386        4.2185138292
 O          4.0239519135       -0.9153682174        7.8013479519
 H          4.5598771919       -0.2354639829        7.3723857593
 H          4.4180259248       -1.7776888849        7.5439798614
 O         -6.7060032159       -1.1569916116       -4.1961165373
 H         -7.0396759442       -0.6125543848       -3.4510617573
 H         -6.7426752417       -0.6070896836       -5.0141747907
 O          3.4245053105       -4.1947854037        1.5076683232
 H          3.0177332149       -4.9643451966        1.0785333528
 H          2.7128455866       -3.7474473599        1.9897168346
 O         -7.6862782926        4.9713210964        4.7806401280
 H         -6.9573504313        4.5573225208        5.2583265530
 H         -8.4254545274        4.3520056389        4.8812838492
 O         -5.5852436676       -7.0565559391        1.4868926371
 H         -4.8583559485       -7.2800305398        2.0960094634
 H         -5.2558215317       -7.2778793438        0.6013401576
 O          4.7322439096       -7.0149835849       -0.0936052186
 H          5.2883517027       -6.9154366766        0.6983412590
 H          4.7564127085       -6.1472210436       -0.5348725609
 O         11.0932684138       -2.4937969489       -2.0108658436
 H         10.8932938690       -2.7176424947       -1.0665851672
 H         11.6973599179       -3.1603305153       -2.3346198848
 O          4.1293175179        1.5549600727       -3.4332685348
 H          4.4691903605        1.3512421721       -2.5416976764
 H          4.8102461072        2.0846972313       -3.8860008637
 O         -3.3147799717        2.4260889332        6.0191554420
 H         -2.7769000797        2.0983313940        5.2704566424
 H         -2.9320119895        3.2926398545        6.2554763655
 O         -4.0122779763       -2.0118276194        2.2587342334
 H         -3.6176515057       -1.1206200250        2.3176413029
 H         -4.7539279233       -2.0651177096        2.8907313755
 O         -4.7541238149       -5.0813638797        4.0890308397
 H         -4.6637678042       -4.7874722732        3.1484562698
 H         -4.4035728465       -5.9756713364        4.1105643985
 O         -9.3481309505       -3.0026686272       -2.1944804084
 H         -9.1257187936       -3.1529650782       -3.1357817413
 H         -9.3572037768       -3.8893055222       -1.7646386118
 O         -6.8982316702        0.1433135829       -6.4611891725
 H         -7.0740672248        1.0986749176       -6.2353428691
 H         -5.9848605315        0.1197649576       -6.8077711648
 O          3.7682044012        6.9553749843        1.0808390519
 H          4.0994848563        6.1206313343        1.4695551447
 H          3.5053774953        6.7590311107        0.1612846489
 O          3.6104203226       -2.9292529487       -3.4714965604
 H          2.8740156861       -2.8488329453       -2.8572549008
 H          3.7431489420       -2.0655796678       -3.9004861530
 O         -8.9622328957       -1.2165588034       -0.0140070484
 H         -9.3908404910       -1.9204488258        0.4915853757
 H         -9.5880572604       -0.4686998307       -0.0799376399
 O          3.9593716170        1.1070020872       -6.9153160491
 H          4.0328774389        0.4839495544       -6.1586274251
 H          3.2642238829        0.7670540467       -7.4793185239
 O         -9.1185820672       -0.8028516704        3.8326603478
 H         -9.3969038689       -1.6894689164        3.5621508713
 H         -8.5186882945       -0.5222934363        3.1210814772
 O         -4.2391001981       -6.7484983319       -0.8011123036
 H         -3.5726031538       -6.1371713507       -0.4420964670
 H         -3.8121557540       -7.1591693808       -1.5621725027
 O         -9.0197282850        5.0310002721       -1.3604045205
 H         -9.0855861920        4.6887276455       -0.4561115031
 H         -9.4498146292        4.3605484168       -1.9089632144
 O          2.1192342635       -6.3920270213        0.5179723448
 H          1.7478560707       -6.7215642339        1.3575286448
 H          2.9507593895       -6.8619365022        0.3301650014
 O         10.3304468002        2.3290148549       -2.6399903794
 H          9.7849303953        1.7398028838       -3.1897580334
 H         10.9992482958        1.7466465480       -2.2542514771
 O          3.2444534589       -2.5838100402        4.5420553847
 H          3.6141811261       -1.7452220602        4.2242517614
 H          2.5045604210       -2.3297098087        5.1089231404
 O         -5.1479711304        0.6598604756        0.8244754844
 H         -4.9484293523        0.9212619773        1.7371363301
 H         -5.7979412440        1.2918309228        0.4643085564
 O         -8.9739863499       -5.3769452527       -1.0729317876
 H         -8.1223324489       -5.5914261504       -1.4917531199
 H         -8.8221135353       -5.5018043571       -0.1215948115
 O         -9.7987701714        2.5884114082       -2.4478829786
 H        -10.0513274745        2.0732509018       -3.2247030654
 H        -10.0305222066        2.0232820934       -1.6848120442
 O         -5.0103954151        4.0624511916       -5.9083638721
 H         -5.3551410448        4.9039427193       -5.5845122742
 H         -4.5501995835        3.6567057086       -5.1413510711
 O          9.1366581909       -5.1007428215        1.1652988467
 H          8.5742644471       -5.2745056725        0.3908933915
 H          8.6535581244       -4.4895277027        1.7541125977
 O         -0.2947708453        2.1323100567       -7.1723608107
 H          0.1196007672        2.9803861692       -7.3796781482
 H         -1.2523996873        2.2621268884       -7.2638020200
 O          4.2900917824       -7.0671753716       -3.1145941667
 H          3.4576175927       -6.7433065424       -2.7370247742
 H          4.7021765712       -7.5783939701       -2.4154271943
 O          1.5677879359       -0.4343724557       -4.1823889230
 H          0.8462844444       -1.0672899252       -3.9545804576
 H          1.9182733964       -0.7451207005       -5.0313979261
 O         -7.4043582062       -4.5033702142        4.0344487618
 H         -7.7254685241       -4.9895408785        3.2574968229
 H         -6.5265934857       -4.8737099890        4.2357914397
 O         -8.0111578146        0.0615155778       -2.2376833522
 H         -8.7780455413        0.2348174760       -2.8193327256
 H         -8.2995173179       -0.5914480428       -1.5833441464
 O          6.9556586921       -1.0446141231        6.0611452980
 H          6.4930958213       -1.6969842289        5.4968440962
 H          6.3295600622       -0.3252557059        6.2475320366
 O         -6.2220364989       -2.1413497708        3.7263268293
 H         -6.6714299811       -1.5397614910        3.1039894606
 H         -6.7228694323       -2.9856632176        3.7265856067
 O          4.1486293781        1.7233843346        2.0664737818
 H          3.7336517931        2.4436893563        2.5667305493
 H          4.8780809282        2.0936789567        1.5403606752
 O         -5.0483444412        2.0474064847       -1.7319767794
 H         -5.9246031183        2.2474306110       -2.1125980614
 H         -4.9390688252        2.6159691880       -0.9476432232
 O         10.4678376936       -2.9445262663        0.4988569579
 H         10.0855195823       -3.8371307121        0.6986241444
 H         11.0601419080       -2.7469299753        1.2427850896
 O         11.3692239754        0.1306902489       -1.1291143352
 H         11.3867060552       -0.7297471821       -1.5703997516
 H         10.4322515944        0.2802526210       -0.8687835346
 O         -2.3260198546        0.0385384403        1.9661065382
 H         -2.3957166365        0.0420651467        0.9961269581
 H         -1.3759413667       -0.0936347179        2.1825740867
 O         -7.2180103260        0.3825204561        5.5064266764
 H         -7.9631004015       -0.0190028655        5.0289257237
 H         -6.8300971427       -0.3373206238        6.0310220441
 O         -3.1657875550        6.1645851365       -4.2422726132
 H         -2.4714120812        6.7184733163       -3.8357204698
 H         -2.7113697010        5.6341666435       -4.9210150222
 O          4.6451363912       -3.2970540733        6.7070462596
 H          4.0796661802       -3.9468414819        7.1284748225
 H          4.2180957837       -3.1115777665        5.8365465064
 O         10.1717247122       -2.7695122702        4.5887021648
 H          9.4846466826       -3.0062541421        3.9194189937
 H          9.8128628613       -3.0978080035        5.4302684549
 O          4.7672231088       -4.6525778631       -1.5025997474
 H          5.4313475984       -4.4056012792       -2.1743420754
 H          3.9589734340       -4.9127032332       -1.9712980262
 O          2.2586992939       -1.6194124652       -6.5506086449
 H          3.1755906907       -1.5182850989       -6.2683865543
 H          2.0475382481       -2.5730050151       -6.4186564607
 O         12.0836753762       -2.5163752922        2.6972306196
 H         11.4519983051       -2.5740071630        3.4441011066
 H         12.7961166031       -3.1202489058        2.9059391363
 O          2.2568732829       -5.3876151118        4.5624941740
 H          2.0768002315       -5.0729105767        5.4729364640
 H          3.2103557441       -5.2603654250        4.4084932370
 O        -11.0859173299        1.1029101179        3.7408967443
 H        -10.6094227768        1.7730095280        4.2651533514
 H        -10.4929330628        0.3293620834        3.7471488497
 O         -1.1728012562       -7.6929988807        0.9787497846
 H         -0.4369023010       -7.6177484676        1.6003157765
 H         -0.7985052324       -7.5416325334        0.0886920327
 O          2.0840069747        4.5852103231       -2.9527852909
 H          2.4125246012        5.2740966917       -2.3194752717
 H          2.8466566264        4.2772879269       -3.4485551806
 O          2.8498667131        6.6007521474       -1.4760778928
 H          3.1974581472        7.0920922470       -2.2524175566
 H          2.0001629193        7.0350930208       -1.2441323939
 O          4.8059398789       -4.9870200191        3.6785824272
 H          5.4115669858       -5.6518987430        3.3257780857
 H          4.3527241344       -4.6197003512        2.8835541760
 O          7.6584596122        4.9817566467        0.0989564123
 H          7.0312267570        4.2253563032        0.0792045754
 H          7.7331611615        5.1978632165        1.0401552932
 O          6.4981192234       -4.2335865032       -5.8073670744
 H          5.5711479739       -4.5324378192       -5.6196739509
 H          6.8860587984       -4.8858597424       -6.3890040241
 O          1.2393308854        6.4653133120        1.8268460708
 H          2.1567204227        6.8074817536        1.7675618101
 H          1.2779652090        5.5886558708        1.3619622169
