  189
       -320.70464087
 O          2.7138226556       -3.5721515424        3.0295250363
 H          2.9524221210       -2.8805742945        2.3590253208
 H          3.4149331699       -4.2257431134        2.9494197463
 O         -0.1927426851        2.8188195736        5.2115294737
 H         -0.8010288606        3.1699376819        4.5491753939
 H         -0.6080045593        1.9998441929        5.5316460199
 O         -2.4279815046       -3.1160371310        5.1437281529
 H         -2.0948640885       -3.9137573706        5.5541530449
 H         -1.6502531587       -2.5494865463        4.9442899919
 O         -3.3613102541        4.3167237278        0.9596561558
 H         -3.9124887946        3.5208632256        0.7753417869
 H         -3.9620765093        5.0559737058        1.0535448195
 O          1.6947417679        0.5957696982       -1.5926767594
 H          1.1541008493       -0.1088269790       -1.9930568305
 H          1.0655529659        1.3060301947       -1.3692303566
 O          2.0416266656        3.5936391266       -2.2800076053
 H          1.1794217630        3.4733304526       -2.7073650847
 H          2.6525423468        2.9993610431       -2.7587016464
 O          3.3823046152        4.0531025976        2.5091178331
 H          3.0746341339        3.7006540577        1.6524156372
 H          2.9781481861        3.4611881873        3.1755798321
 O         -2.8169806728        1.7358211984       -1.3247222885
 H         -2.9087777096        0.9092532210       -1.8612847653
 H         -3.0326340294        2.5053465572       -1.8943498516
 O          3.5534909227       -4.2808947369       -0.3679949369
 H          4.0254876679       -4.3408274194        0.4750977793
 H          4.2339466221       -4.0525223418       -1.0381298331
 O         -0.0541130238       -3.9577957024       -4.8483908871
 H          0.4685659516       -3.1799597653       -5.0891505232
 H          0.3684025485       -4.3159344633       -4.0538713248
 O         -7.0103763965       -1.1495761043        1.8305126152
 H         -6.8387134806       -2.1054641847        1.7874747426
 H         -7.3922875419       -0.9139333308        0.9724360195
 O          2.1417648288       -1.8054242300        5.0387502873
 H          2.7362708041       -1.0540825181        4.8832346643
 H          2.4295077715       -2.5117155231        4.4327480499
 O          5.1942510567       -4.3445671520        1.9207555037
 H          5.6153235758       -3.4713416830        1.8323034668
 H          5.8899872360       -4.9942544263        1.8170210107
 O         -0.1895107211        3.0338091984       -3.8523423711
 H         -1.0305006482        2.5242438280       -3.9071753436
 H         -0.2088848305        3.6527844674       -4.5834819298
 O          1.4898935909        1.2017284435       -5.1820250040
 H          0.8439053560        1.7427774995       -4.7014562183
 H          2.3409082717        1.3782483752       -4.7591269616
 O         -1.3029371965       -3.4359499413       -1.5330087034
 H         -1.6518272454       -3.7515647483       -0.6913183926
 H         -0.5700647271       -4.0312812999       -1.7778573820
 O          6.1276450981        1.6393098056       -2.4993105537
 H          5.9451088676        2.2218284791       -1.7320872106
 H          6.6979553130        2.1297659446       -3.0913649906
 O          2.1142143809        2.9908866387        0.3621492771
 H          2.0883567535        3.1673967442       -0.5993605955
 H          1.3545842463        3.4567500826        0.7511523159
 O         -4.9483380754        1.0424899510       -3.4522211843
 H         -5.1345089175        0.1281308994       -3.6971255619
 H         -5.5285800655        1.2659212044       -2.7104815347
 O          5.2418022838        3.1087003797       -0.4396748354
 H          5.6245504250        3.2207524477        0.4472577004
 H          4.7503208026        3.9347954263       -0.6373175478
 O          3.9418068156        0.2750541540        4.6250952399
 H          4.3648378447        0.3798076380        3.7417328178
 H          4.6520422866        0.1689642112        5.2580186651
 O         -1.0450355510        4.8157511944       -0.5167326447
 H         -1.9127892626        4.6677889371       -0.1018737544
 H         -0.4646671519        5.0899844055        0.2048043217
 O         -4.5842871613       -0.1396933663        2.0037361710
 H         -4.6446955656        0.6944686966        1.4820114757
 H         -5.5219472518       -0.4511680711        2.0669046409
 O          3.3731676644       -1.7155984588        1.3050979171
 H          4.3424410468       -1.7796427506        1.2693096355
 H          3.1609137378       -0.8101021524        1.5748280767
 O         -0.1831499065       -1.1203142714       -2.5739358988
 H         -1.0494843929       -0.7651884580       -2.8429036317
 H         -0.3953418292       -1.9743754583       -2.1643493604
 O         -4.6529253250        2.0262684701        0.4655740315
 H         -5.4686386348        1.9785920877       -0.0620664682
 H         -3.9320142437        1.8363614992       -0.1960758193
 O          1.2063283797       -1.4492022703       -4.8370657645
 H          1.2863871594       -0.5349265918       -5.1758285599
 H          0.6427749570       -1.3594534149       -4.0362174770
 O         -2.4711290023       -3.1361640172       -4.0329897771
 H         -2.2357701389       -3.2026386869       -3.0916494942
 H         -1.7207331610       -3.5751074759       -4.4878819250
 O         -4.8876988123       -1.8352737840       -3.6269798124
 H         -5.3234853066       -2.3357868800       -2.9252134299
 H         -4.2453341044       -2.4384234140       -4.0313736617
 O          4.0375232951        0.7150690384       -0.1985768234
 H          3.1604942393        0.6066552713       -0.6033207663
 H          4.3281862573        1.6347928646       -0.3533081566
 O          2.2187183436        0.7356826449        1.8600379654
 H          2.2217050021        1.4709600372        1.2198083719
 H          2.0499065304        1.1632771793        2.7211761523
 O          6.1261451595       -1.7832054046        1.4491620501
 H          6.0711587546       -0.9357580606        1.9195650494
 H          6.3350700628       -1.5571931715        0.5258338205
 O         -0.3141090729        2.2744844411       -0.8599441763
 H         -1.2128323102        1.9740965270       -1.1310870702
 H         -0.4041692051        3.2486441859       -0.8417496036
 O          0.4562974660        4.6016311404        1.8391676907
 H          1.1635028808        4.8345314900        2.4478720607
 H         -0.2641000425        4.2225922976        2.3774256932
 O          5.2013879455       -3.1957398675       -2.1775998352
 H          4.6114164096       -2.7986629298       -2.8335979585
 H          5.6367407461       -2.4366293148       -1.7544796566
 O          5.2113991817        0.6712699824        2.2898149762
 H          5.5940770788        1.5626693105        2.3364215024
 H          4.6546934060        0.6767029109        1.4866762451
 O         -2.8266419380       -0.6581674770       -2.2973456478
 H         -3.0508165745       -1.1018482201       -1.4620875560
 H         -3.5129930733       -0.9361040854       -2.9299309971
 O          0.1408778690       -3.2214027727        2.4387712417
 H          1.0170931338       -3.5900023374        2.6688181706
 H         -0.1270596225       -2.6749845663        3.1980535556
 O         -2.4576973940        1.7673542278       -4.3112813259
 H         -2.1585328286        0.9036814573       -4.6475525682
 H         -3.3789251411        1.6064444124       -4.0428424645
 O         -3.4816623468        1.3992288124        4.0889805260
 H         -3.0237634803        2.1428776175        3.6655774329
 H         -3.8701959433        0.8480362017        3.3913118820
 O         -3.0236752196        4.0547070302       -2.6235619454
 H         -2.2227211127        4.5019150960       -2.3293345361
 H         -2.8978285843        3.7819263506       -3.5372490933
 O          3.4245807658       -1.4304443811       -3.4002728361
 H          3.8014247645       -0.5763486812       -3.6292404805
 H          2.6688176719       -1.5644805707       -4.0215127008
 O         -5.8729912481       -2.7904204419       -1.0996761174
 H         -5.0531426567       -2.3685838180       -0.7446824118
 H         -6.1154879140       -3.4273824960       -0.4156325036
 O          3.7388565723        5.2701400744       -0.9316586498
 H          3.2694749675        5.6392105915       -0.1815220772
 H          3.0736853120        4.8882170142       -1.5282803105
 O          1.0431977471       -4.5055619255       -2.3050558486
 H          1.4323586258       -3.6548795336       -1.9946518694
 H          1.6280522127       -5.1839478495       -1.9629952262
 O         -1.6715341654       -0.7308007574       -5.0140132031
 H         -2.0505332490       -1.5789215271       -4.7045555342
 H         -1.0238649305       -0.9484207708       -5.6861811822
 O         -7.6810939321       -0.8987463506       -0.8729272782
 H         -7.0004129903       -1.6073385650       -1.0340300127
 H         -8.4761445256       -1.1739412807       -1.3303624199
 O         -6.1070354594       -3.7624985237        1.5680073843
 H         -6.5226547169       -4.4966329089        2.0211048925
 H         -5.3119323332       -3.5303943682        2.0874747608
 O          2.0667196659       -2.2949767367       -1.2108991960
 H          2.6268791608       -1.8812442920       -1.8935898906
 H          2.6534958785       -2.9081940594       -0.7037539687
 O         -1.6284631551        0.5350600831        5.7338417670
 H         -2.3789429284        0.8113295553        5.1485495076
 H         -2.0109116903        0.3193863844        6.5847550350
 O         -6.6782889529        1.5530544040       -1.2913746372
 H         -7.4094011128        2.1350103919       -1.5006906688
 H         -7.0557373318        0.6618433054       -1.1260520837
 O         -0.3992021223       -1.4965645031        4.4503109383
 H         -0.7665080263       -0.7078785056        4.8924902660
 H          0.5334486691       -1.5737002629        4.7725730900
 O          2.1097255338        2.2520985123        4.0540960175
 H          1.2823183025        2.4657556236        4.5461497375
 H          2.6515410479        1.6725323440        4.6066596845
 O         -3.9663929790       -2.8337494594        2.9885625737
 H         -3.5150601339       -2.9889885819        3.8454934199
 H         -4.0892240364       -1.8787784585        2.9253268558
 O          6.0392719784       -0.8099248497       -1.0786955052
 H          6.4620744182       -0.2008682452       -1.6928610353
 H          5.2313611020       -0.3341030163       -0.7822925253
 O         -3.7300878146       -1.7307739234        0.0151188301
 H         -4.0219552326       -1.1740862366        0.7700454994
 H         -3.2279604152       -2.4794317292        0.3816357663
 O         -2.1952014230       -3.7094155521        1.1297580066
 H         -1.3164987128       -3.6762208440        1.5475352589
 H         -2.8256058972       -3.6326511677        1.8676025282
 O         -1.7483432925        3.3086276866        2.9076961726
 H         -2.3402032994        3.7229560498        2.2536592753
 H         -1.3227608711        2.5371764835        2.4614342561
 O          5.8757575415        3.3263838636        2.2159027087
 H          4.9606694991        3.6742345788        2.4091658057
 H          6.4951157173        3.9133417486        2.6481401879
 O          3.5154735073        1.5508176535       -3.3224130352
 H          2.9579579370        1.0840742595       -2.6621810292
 H          4.4409034417        1.5275872006       -3.0188867531
 O         -1.1193997302        1.1986500263        1.4977795039
 H         -1.0109804911        0.2431742316        1.3390223691
 H         -0.7248452905        1.5809650113        0.6958534266
 O         -0.3989431265       -1.2498678911        0.4773131130
 H          0.3980950125       -1.1640070780       -0.0561581647
 H         -0.1808065703       -1.9089393374        1.1483353532
 O          0.8314304899       -5.4573678553        0.2372324776
 H          1.7223376958       -5.0933487446        0.1864046751
 H          0.2513032405       -4.6931536222        0.2825814027
