  609
      -1033.94653074
 O         -0.7175473369       -2.7975826650       -4.0257776526
 H         -1.5801062626       -2.4606409969       -3.7575243940
 H         -0.8917779145       -3.4919284758       -4.6936074628
 O          2.7214329932       -2.1522876255        1.9442417437
 H          2.2326524116       -2.7436516763        1.3380639515
 H          3.3135599218       -2.7279343971        2.4489857694
 O          4.1015511881       -4.5495835818        0.2955749394
 H          4.8685875948       -5.0990202961        0.0499464248
 H          4.1521993419       -4.4171444228        1.2593807452
 O          1.1016111563       -2.3403776705       -5.9499758794
 H          0.4357242164       -2.3654783392       -6.6603903430
 H          0.5992516591       -2.1558835734       -5.1401074610
 O          6.7326806431        1.5396963103        2.8699570258
 H          6.2649106421        0.6903457089        3.0241787024
 H          6.5200690453        2.1033421413        3.6310170034
 O          1.1457721986        3.3708814559        4.8562645461
 H          0.8622749667        2.8502196609        4.0643083616
 H          0.4449387619        3.1978984548        5.5187293623
 O          4.2584136045       -0.1629245902        1.0063052794
 H          3.5846940310       -0.8575735147        1.1486616503
 H          3.9202827726        0.6273507593        1.4650358863
 O          2.7709269430       -5.4755765552       -1.9428390230
 H          3.1255219955       -5.2325905551       -1.0717315058
 H          2.1979047876       -4.7285737452       -2.2122445942
 O         -5.7007439326       -2.8242379908        2.0547757031
 H         -4.7770913408       -2.5630093820        1.8472625742
 H         -5.6690089262       -3.6640230000        2.5639043566
 O         -2.6470971865       -4.2330114880        3.1521505006
 H         -2.7233265682       -4.0624611484        4.0979059910
 H         -1.6916601380       -4.1679181508        2.9390165794
 O          5.6371565401       -0.8514757245        3.1068468723
 H          5.1657033512       -0.7364099018        2.2439228563
 H          6.4836251632       -1.2944697882        2.9218142635
 O          1.2400256770       -3.3473342003       -2.2977169025
 H          0.4532401992       -3.2789273356       -2.8689827734
 H          1.7215160023       -2.5143051699       -2.4222983890
 O         -4.6963942747        1.4868452928       -4.0244797677
 H         -3.9831322758        1.2055336913       -3.4257604687
 H         -5.5294280153        1.1183095856       -3.6403429455
 O         -1.8041330405        0.0978322175       -4.5983837719
 H         -2.3133267656       -0.4835625303       -4.0115969560
 H         -2.0633832236        1.0245771798       -4.3953211777
 O         -6.0260564986       -2.3694682916       -2.5416547004
 H         -6.4489026331       -2.6303690751       -1.7001866352
 H         -6.6694204561       -1.8091260720       -3.0151627773
 O         -3.8588473161       -1.2750970313       -0.8581433788
 H         -4.8165638355       -1.1007099142       -0.8265217684
 H         -3.6121649010       -1.5727758597        0.0300836802
 O          3.7469637665        0.9330828413       -1.4405636159
 H          4.0157861984        0.5131537654       -0.5988437634
 H          3.1281755152        1.6329238986       -1.1890026490
 O         -3.4386349627       -1.2948621587        4.2116136229
 H         -4.3908353014       -1.2584810135        4.4203066079
 H         -3.0631401978       -2.0179161734        4.7339832003
 O         -2.0047769114        2.0761838525        0.4791193918
 H         -1.3868159473        2.8137154978        0.5886710155
 H         -2.8879112681        2.4596984836        0.4342574327
 O         -4.4454232252        3.9929917909       -3.0779963958
 H         -3.6256932014        4.0454539906       -2.5432553160
 H         -4.4850914943        3.0703722988       -3.4120812522
 O          0.9669473960        3.1535518667       -6.0602220394
 H          0.8589364550        2.5860427085       -6.8280800267
 H          0.2549930758        3.8020850203       -6.0800341973
 O         -2.4523926462       -3.3082717601        5.8026124979
 H         -2.3922885199       -2.5734758457        6.4538093252
 H         -1.5871119342       -3.7581280569        5.8129316727
 O         -0.8755615551        2.6823164725        6.4428360020
 H         -0.3067805657        2.1056509839        6.9940709461
 H         -1.4991415090        2.0651843136        6.0196762835
 O         -0.6518146415       -1.0582010312        3.8736252489
 H         -0.6252616150       -1.8727600825        3.3403732441
 H         -1.3121566016       -0.4749116169        3.4598628568
 O          1.5996216449        2.3839110354       -0.5694773398
 H          1.5395334850        1.4700727678       -0.2213963250
 H          1.7666530477        2.9614387386        0.2024793642
 O          0.3659053324        6.9173680342       -2.4883172707
 H          0.7862958633        6.6699818349       -1.6505043778
 H         -0.5393124055        7.2032084882       -2.2724907060
 O          3.5503620125        2.0809160565       -4.3655170954
 H          4.2586938604        2.6808993266       -4.6844045493
 H          3.1524041677        1.6754390171       -5.1652091853
 O          3.7931182728        4.7265208458       -0.9893004654
 H          4.1054375668        3.9075120339       -0.5331621834
 H          4.2373094605        4.7529322776       -1.8614607982
 O          4.0372123858       -2.9286431390       -3.4925345800
 H          3.4570776906       -3.6386762029       -3.8246355907
 H          3.7584332013       -2.7178549263       -2.5769444671
 O          6.6784246700       -2.7910054901       -4.0585930125
 H          6.5859347143       -2.8757008637       -5.0325775738
 H          5.7642784989       -2.8892099546       -3.7262658267
 O         -3.2141651085        4.5329605625        1.0263487443
 H         -3.1866379298        5.4749011906        1.2485708341
 H         -4.1378335182        4.3549954647        0.7687742367
 O         -1.3775401508       -3.5567954234       -0.2803235566
 H         -2.1510900674       -3.2102063063        0.1723197415
 H         -0.9271151398       -2.7664545349       -0.6929764502
 O         -3.0226347027        0.9825861964       -2.0520336419
 H         -3.1009759125        0.1943808063       -1.4887574359
 H         -2.1555301555        1.4090830937       -1.9268922791
 O         -6.8548745745        4.7673634595       -4.2668310258
 H         -7.3096803991        3.9850234159       -4.5939334407
 H         -6.1099575832        4.9275159176       -4.8624203656
 O        -11.1273022849        2.5526837999       -1.0501345435
 H        -11.1938709020        2.6847977818       -0.0816088175
 H        -11.6059367218        1.7424633997       -1.2742740519
 O         -0.3594238502        4.2252381129        0.7853768049
 H          0.3338930168        4.7978420024        0.4257586858
 H         -0.8117532734        4.7332329184        1.4801829504
 O          6.5658911918        1.0641798230        0.1030973809
 H          7.2842317764        1.4076390145       -0.4664462827
 H          6.8435081804        1.1566339481        1.0230719123
 O          3.6851931975       -1.7582362860       -5.9546754346
 H          2.7734856188       -2.0457409740       -6.1322422496
 H          3.8727540043       -2.0947741206       -5.0581975372
 O         -7.8015184699        3.0743331005        4.2456475199
 H         -7.2658763075        3.1433891423        5.0378619961
 H         -7.4683757333        2.2834165225        3.7546172148
 O         -4.5924007616        2.3873342424       -0.4049338010
 H         -5.4500202756        2.6287373534       -0.7762442047
 H         -4.0931771312        1.9260476723       -1.1081153448
 O          5.2717563664        1.7202467374       -7.2777882536
 H          5.7774713274        0.9809070169       -6.8935413182
 H          4.3434358565        1.4493271364       -7.2431845922
 O          3.4402471863       -2.2151104555       -0.9507649555
 H          3.6466355300       -3.0336005252       -0.4675294001
 H          4.2693826861       -1.6948609573       -0.9628342266
 O          5.2857449446       -5.7283430764       -2.8782168608
 H          4.3255669164       -5.7351296582       -2.7054002423
 H          5.5961248851       -4.8672493392       -2.5402729978
 O          0.8056543110        0.8666979295        7.4828208840
 H          1.6969023720        0.9507256915        7.1189308193
 H          0.5063279753       -0.0143618608        7.1902055362
 O          4.7923773855       -0.1860995917       -3.7952750454
 H          4.0205055826       -0.7516791153       -3.6562632559
 H          4.4251784197        0.7211392118       -3.8860188309
 O          8.2056239086       -1.5293856012        2.8911900118
 H          8.7514573950       -2.2862445996        2.6227219347
 H          8.5898379145       -0.7461360798        2.4561609437
 O         -5.1431194018        3.0622099888        2.6560484835
 H         -5.8776468330        2.8770903073        2.0441269281
 H         -5.1669831815        4.0119637250        2.8154533879
 O         -6.4118390018       -0.5975307177       -0.3973056333
 H         -6.0556374182       -0.1769121051        0.4045865348
 H         -7.3366216028       -0.8390886603       -0.2370540196
 O         -1.2576060972       -5.9055812674        1.1991724437
 H         -1.3029556217       -6.6014390481        0.5187406733
 H         -1.1465189709       -5.0753669737        0.7101425156
 O          3.1428921285        1.6360874294        2.7080408933
 H          3.5213951767        2.0486129418        3.5029043034
 H          2.5145408448        0.9560097798        3.0345825531
 O         -8.0176308956       -1.5337083811       -4.1407658417
 H         -8.6256642797       -0.9393223397       -3.6556449526
 H         -7.7564735420       -1.0268856837       -4.9165866088
 O          2.1116891224       -0.7061697365       -2.8768808949
 H          1.6316054024       -0.0630498066       -3.4253097722
 H          2.6877786398       -0.1666331682       -2.3003239294
 O         -3.5290450589       -4.4868056604       -4.2781971497
 H         -4.4742875968       -4.5252167288       -4.5026677028
 H         -3.4062251080       -3.5833735779       -3.9322821125
 O         -1.5835958412       -5.1820928418       -2.3653869295
 H         -1.5348821514       -4.5457990588       -1.6150496284
 H         -2.3899884796       -4.9663971695       -2.8531044949
 O         -3.0649682945       -0.6924753558       -6.7794459592
 H         -3.7968929960       -1.1734024104       -6.3561472622
 H         -2.5062205793       -0.3706325537       -6.0295876841
 O         -8.7532238704        1.2070282274       -0.7209526696
 H         -9.4653151733        1.8575446618       -0.8400134196
 H         -8.9840334778        0.6992085712        0.0817991796
 O          2.8781066637       -2.5113324721        6.2742510862
 H          3.2122792865       -3.3949295877        6.5472800110
 H          3.6676672787       -1.9669338035        6.1630312680
 O          2.0325833006       -6.3705173519        1.1094549881
 H          2.9471360530       -6.5358557177        1.3755431314
 H          1.4711594201       -6.4664803054        1.8918696796
 O          0.6185267567        1.1701306523       -4.1510592341
 H         -0.0969351408        0.6467588683       -4.5513454543
 H          0.8628856359        1.8483070855       -4.8019451450
 O         -7.1922953619        2.6599402318        0.9630207361
 H         -7.5105248575        2.0426142655        0.2875291957
 H         -7.8021902758        3.4151598820        0.9155057975
 O         -2.4735861243        0.4888098542        2.5018406347
 H         -2.5974721769        1.2105565657        3.1414574483
 H         -2.1470860098        0.9670976115        1.7027984373
 O         -8.8818382998        4.7387911443        0.5754768214
 H         -8.5290856837        5.3033458865       -0.1223589659
 H         -8.6879873723        5.1806435038        1.4349829656
 O         -4.0472411028       -4.1000110362       -1.5696000572
 H         -4.0603259930       -4.2732444092       -0.6113172818
 H         -4.6677149917       -3.3882159040       -1.7590000260
 O          5.7699902849       -1.0032807694       -1.4366770051
 H          6.0222794597       -0.2967142629       -0.8162371228
 H          5.5159111460       -0.5822699169       -2.2787800872
 O          2.3478991163       -4.5337443835       -4.8574115050
 H          1.6744827784       -5.1525588288       -4.5263630196
 H          1.8659203984       -3.8477465782       -5.3509853859
 O         -1.1643597027        5.8409354187        2.8525014719
 H         -0.2159726073        5.8267590371        3.1318726445
 H         -1.6569103226        5.6540237962        3.6646618433
 O          1.8973814283       -0.4038592676        3.8052862319
 H          2.1988084725       -1.0912577143        3.1783120109
 H          0.9239432251       -0.4981320748        3.8484887680
 O         -7.8461633669       -2.6175704656        5.8848609163
 H         -7.5814899870       -3.4788237941        6.2082420800
 H         -8.7723367209       -2.6497599241        5.6016479317
 O         -1.0772842007       -2.3904329982       -7.5193402180
 H         -1.2936917322       -3.2699514906       -7.1849901017
 H         -1.8641985242       -1.8323836896       -7.3580021053
 O         -3.1651462121       -2.1354637870        1.6228087649
 H         -2.9161219628       -2.9058482901        2.1846926208
 H         -3.0421341375       -1.3646621890        2.2038311663
 O          6.9452022978        6.9436720011       -2.2280884987
 H          6.2941693657        6.4314745980       -2.7426072702
 H          6.5328519715        7.0655071368       -1.3636874431
 O         -5.7535579535        5.0596623466        0.2126057276
 H         -5.4496931088        5.6308962333       -0.5185728486
 H         -6.2928283359        4.3640188653       -0.1935397324
 O          1.9207935894        3.6416614829       -3.0246732158
 H          1.8980628889        3.3130132556       -2.1161717096
 H          2.4970866445        3.0210976965       -3.5289948426
 O         -8.3265006861       -2.0664163468        2.5342277145
 H         -8.5474326579       -1.4981663100        3.3081796062
 H         -7.3794194457       -2.0043366381        2.3617227957
 O         -0.4089650640        4.6766201676       -3.8740883208
 H         -0.2510972931        5.5273569429       -3.4311425048
 H          0.3924685041        4.1549484551       -3.6736007425
 O          6.3253841779       -2.6845308549        1.0914984850
 H          5.9665947323       -3.1258166485        0.2977201621
 H          6.9507954026       -2.0274251462        0.7293047369
 O        -10.9931806481       -1.4684045281        2.5877500419
 H        -10.8293316535       -1.7048445203        3.5119412340
 H        -10.9280307465       -2.3064454818        2.0894594101
 O          3.4113669658        6.6144052375        1.9869154351
 H          3.9807726866        5.8704638502        2.2677605399
 H          2.7417339848        6.6767254976        2.6809392992
 O         -2.7092242291        0.8821836459        5.5198837789
 H         -2.8763235186        0.1228650389        4.9174106055
 H         -3.5312468945        1.4095614360        5.4942899296
 O          4.6938192389       -6.8445304454        2.0760290394
 H          5.1542109803       -6.8871944556        1.2236856852
 H          5.3710738301       -6.5870436241        2.7187130632
 O        -10.7642289287       -3.7221505866        1.0909084319
 H        -10.0926576364       -4.4065974192        0.9524909704
 H        -11.0420853179       -3.4534085628        0.2044183288
 O         -5.1306886038       -1.5920825163       -5.2695439086
 H         -5.6511022780       -2.4043174453       -5.2881107096
 H         -5.7513969664       -0.8419914173       -5.3566631160
 O         -1.4291665483       -7.4746459350       -1.0078625673
 H         -1.5545982642       -6.6798724280       -1.5683717227
 H         -0.4869435210       -7.7043085250       -1.1229689690
 O         -4.8413523239        6.5250822582       -1.8489700341
 H         -3.9136073524        6.8295087796       -1.8357800634
 H         -4.8479096272        5.7878034099       -2.4772301216
 O         -0.2514670118       -3.3663520121        2.5115611629
 H          0.0666645215       -3.5528367056        1.6068635549
 H          0.5260173269       -3.5104264821        3.0781995449
 O         -4.4000555855        1.6914442184       -6.6548331582
 H         -4.0019490454        0.8372183758       -6.9104250475
 H         -4.4263966743        1.6557278172       -5.6712924259
 O         -6.2692417097       -6.4554824831        1.3876213045
 H         -5.5963426314       -5.7850001638        1.1419865833
 H         -5.9303537512       -7.2758185484        1.0208500805
 O         -6.0772486536       -1.3890942193        4.3275803460
 H         -5.9635677801       -1.9794526392        3.5640106079
 H         -6.6647452574       -1.8407195593        4.9670663130
 O         -6.9170963151       -3.4320358637       -0.2649625884
 H         -7.7240159379       -2.8824232238       -0.1662561227
 H         -6.4077947960       -3.2935000979        0.5563169163
 O         -0.6249304966        2.2912653895       -2.0526167966
 H         -0.1920275578        1.9374237570       -2.8579267994
 H          0.0993577701        2.4303244027       -1.4158430779
 O         10.1775394034       -3.0948102674        0.0685809842
 H          9.4330732233       -2.4393279433       -0.0028386915
 H         10.3686312914       -3.1751380640        1.0173037517
 O        -10.4438280785       -3.1713176421        4.8515722929
 H        -11.1999321403       -3.6349980180        5.2082566694
 H         -9.9514856057       -3.8036406190        4.2914478153
 O         -2.4146054902       -1.0915104263        7.3302879231
 H         -2.4923759836       -0.2940086774        6.7597355011
 H         -1.4799221315       -1.1499727086        7.5527152258
 O         11.9938280689        0.1608548676        1.5115068250
 H         12.2878353052        1.0658573213        1.3543279053
 H         12.2210435615       -0.3581568509        0.7306420994
 O         -6.7823432655        0.7004757479       -2.7057268622
 H         -7.0210216758        1.5852733387       -2.3852860758
 H         -6.6018812640        0.1821565289       -1.9003804833
 O          4.5637468992        2.7518178787        0.5345390230
 H          4.8524120024        3.1823592151        1.3498931605
 H          5.2771599790        2.1287489523        0.2876753633
 O        -10.9234228218       -2.6162184094       -1.4310865795
 H        -10.4678378431       -3.0436158881       -2.1974283849
 H        -11.4034671678       -1.8432309416       -1.7489361904
 O          6.7720923311        4.0258679081       -0.5505360506
 H          6.3618076054        4.8213159063       -0.1935827406
 H          7.4338061309        4.3361940512       -1.2087112593
 O         10.0173501347        4.9739183693        0.0244069307
 H          9.4684141902        5.6608371605        0.4500531640
 H          9.7208524967        4.9495486626       -0.9003866072
 O          4.6029419554       -3.7844505732        2.8696892106
 H          5.1145462686       -4.4772667306        3.3315509236
 H          5.2618600619       -3.2107966943        2.4455506888
 O         -5.2795857790       -1.3169022283        7.1627939694
 H         -5.3804109342       -2.2233095174        6.8269049082
 H         -4.3467978801       -1.2082214116        7.3791020031
 O         -5.1616746409       -3.8732407743        6.0758788226
 H         -5.4389240877       -4.2685842331        5.2359764895
 H         -4.1942876665       -3.8534354716        6.0597616132
 O          6.1918271247       -3.6313861367       -1.3918288921
 H          6.2196676813       -2.6808901542       -1.5998373764
 H          7.0990880776       -3.9518042301       -1.2680306332
 O          0.3015972066       -6.1246416738       -3.9935917623
 H          0.6354444239       -6.9159118976       -3.5663583906
 H         -0.3015207865       -5.7040814474       -3.3431819846
 O          6.0570821880       -6.3487454167       -0.3364830975
 H          6.9637676876       -6.0132540431       -0.3726847724
 H          5.7875671323       -6.4140562894       -1.2746860453
 O          8.5239145738        3.0952358953        1.2178633598
 H          7.7788559885        3.2509271640        0.5960033786
 H          9.2327876616        3.6682539262        0.8590124107
 O         -5.4749710739        5.8461864477        2.7501805616
 H         -4.8323887378        6.5587102472        2.6722130546
 H         -5.6783316826        5.6067314171        1.8189166890
 O          8.2681946229       -1.3444164980       -0.1719150233
 H          8.1735484304       -1.1423531962       -1.1257965125
 H          8.6010277482       -0.5391618890        0.2716848131
 O         -1.8146272117        2.5469987772       -7.1408203251
 H         -2.7562473636        2.3377960517       -7.2519773477
 H         -1.7381636431        3.5223654537       -7.1169126726
 O         10.5666622380        1.1368688602       -3.8528001853
 H         10.7047154250        0.1808316926       -3.9257680776
 H          9.6145790777        1.2872396241       -3.9384461555
 O          4.8630676032        4.4089767904        2.7517396905
 H          4.4999043633        4.0290101863        3.5613539151
 H          5.8278917874        4.5193396233        2.9061369167
 O          8.0952598411        6.4181007832        1.2918914127
 H          7.8983149167        5.9202577028        2.0969065599
 H          7.2479044543        6.5660798640        0.8545465693
 O          7.4892445026        4.4921097868        3.2164692434
 H          7.4656240834        4.0505415449        4.0733603656
 H          7.8798439478        3.8513413445        2.5709498025
 O        -12.1698109244       -0.0400269421       -1.5028865469
 H        -12.2080516526       -0.0066253333       -0.5079680485
 H        -13.0798754630       -0.0869208350       -1.7955695779
 O         -7.7018495069        6.1334339728       -1.9187281806
 H         -6.9695429380        6.7253176600       -1.7269479124
 H         -7.4692564085        5.7328892222       -2.7726530598
 O         -8.8708338028       -1.6523749506       -0.0536821464
 H         -9.6659849700       -1.9660873477       -0.5315437188
 H         -9.0288830365       -1.7589660692        0.9001116149
 O         -3.6746621809        7.2933585715        1.1748857611
 H         -4.0922272403        7.4150160216        0.3172719975
 H         -2.8386193121        7.7684026779        1.1519192023
 O         -9.4462012015       -3.7351329905       -3.3240038722
 H         -8.8363888816       -4.3541597196       -2.8884188502
 H         -8.9063210300       -3.0263670672       -3.7133947612
 O          1.8305025522       -3.6359151748        4.1536696256
 H          2.3937899873       -4.4239030501        4.0407170187
 H          2.2691349058       -3.0706554620        4.8250757736
 O         -6.9946090370        0.8043075077        3.1245267186
 H         -6.7544971138        0.0872604547        3.7440809029
 H         -6.2526717970        0.8450837480        2.4827485797
 O          1.2455818374       -7.5759987661       -1.2642837939
 H          1.7889132233       -6.8789753546       -1.6832667603
 H          1.4495147960       -7.4563423910       -0.3254033500
 O         -4.0451560671       -5.0453486553        0.9325824329
 H         -3.4834540641       -4.9265499829        1.7150418551
 H         -3.8146547013       -5.9335904312        0.5796422832
 O        -12.3624245986        0.3202832409        1.0842521762
 H        -12.0280160280        1.1632577796        1.4086783377
 H        -11.9820091266       -0.3619889931        1.6689233726
 O         -6.9486437137        0.5135245251        6.1913363727
 H         -6.3444694015       -0.2094797526        6.4853059733
 H         -7.3832849039        0.8214142632        6.9858812272
 O          8.7787786921       -2.0451185845        5.4872729477
 H          8.4982702152       -1.8153493860        4.5727455724
 H          9.7188296706       -1.8529887794        5.5112483482
 O         -7.6046385938       -5.3334161119       -2.0149409142
 H         -7.3004884455       -4.6901714056       -1.3455638986
 H         -6.8153979349       -5.8544859522       -2.2326690875
 O          7.9932886458        3.9135231260       -4.7276226355
 H          7.1104971620        4.0680113170       -5.0937026322
 H          8.0407331783        2.9527131546       -4.5905128489
 O          5.7513260602        2.3926701343       -2.5830658801
 H          6.1017156712        2.9226841704       -1.8537293861
 H          5.0556276349        1.8271853241       -2.2003209169
 O          5.0866582194        5.2460834422       -3.2551938965
 H          5.3211664717        4.5510362471       -3.8869774697
 H          4.3273103332        5.7251472831       -3.6276329333
 O         10.5977895017        3.1612048430        3.2713886363
 H         10.2545391489        4.0548763557        3.2321814816
 H         11.0334966707        2.9958894611        2.4146745524
 O         -2.3682347538        3.0158472339        3.2805875385
 H         -2.3267025240        3.6487198843        4.0213091302
 H         -2.7707790949        3.4849502059        2.5323240586
 O          2.6061246793        6.0798444944       -3.8788535422
 H          1.9255590633        6.6946903280       -3.5854889889
 H          2.3423333276        5.2063414384       -3.5125639006
 O         -5.0419928379        2.1654557344        5.1418218755
 H         -5.7373058499        1.5341057852        5.4016539639
 H         -5.0850049670        2.3026085784        4.1659684998
 O          2.7656729143        0.7251032899       -6.5082173920
 H          1.8268208021        0.5708227585       -6.6930119494
 H          3.1519220526       -0.1517879442       -6.3133572123
 O          6.4487713050       -0.2802051223       -5.8697941814
 H          6.5460059504       -1.1299544172       -6.3102986023
 H          5.7623100123       -0.4008462189       -5.1739673205
 O         -1.3355815717       -4.7036656551       -5.8177047973
 H         -2.2065050183       -4.8007939362       -5.3872315488
 H         -0.7696107683       -5.4035243194       -5.4659869564
 O          3.0990347052        4.9485856365       -6.2999592161
 H          2.4261227355        4.2504447570       -6.2678469371
 H          2.8893830767        5.5420088509       -5.5593408651
 O          8.8453164322       -4.2839142481       -3.3082076400
 H          8.0267974304       -3.8441621831       -3.6097031288
 H          9.5338171197       -3.6136813875       -3.2827387226
 O         -2.2368091496        2.6936177323       -4.4170928857
 H         -2.0481496246        2.6995334360       -5.3691147356
 H         -1.6459689900        3.3490249272       -4.0176636051
 O         11.0779778069        1.2211774253       -1.2543861585
 H         11.0852771480        1.3588154615       -2.2264900165
 H         11.3354180605        0.2844140129       -1.1303267502
 O         -6.1919317112       -4.1330964354       -4.5104901283
 H         -6.1651115543       -3.5584532170       -3.7053435646
 H         -6.9741135001       -4.6794835655       -4.4247612664
 O         -9.2885423105        0.5462789882        1.7812332370
 H         -8.4699176004        0.6430382023        2.3182968128
 H         -9.8290912172       -0.1532811224        2.1899766467
 O         -2.1781229889        6.9670564829       -1.5637286553
 H         -2.1312518449        5.9847424075       -1.6369794714
 H         -1.7958174099        7.1803580482       -0.6916760271
 O        -10.7080293780        2.7476879296        1.5899661025
 H        -10.1627689419        3.5288245690        1.4266311909
 H        -10.0779113014        1.9861297696        1.6771152647
 O          2.2362604228        3.8017652479        1.5888290658
 H          2.5262539598        2.9602332997        2.0289863202
 H          3.0462231187        4.2162653922        1.2820657718
 O         -1.6482477668        5.0597739722       -6.2862355935
 H         -2.6054732094        5.1451322458       -6.1296777202
 H         -1.2359799813        5.0895319726       -5.4041574669
 O         -9.6939050269        0.1417209562       -2.9451613531
 H        -10.6038358137        0.0567305819       -2.6452688725
 H         -9.1793014682        0.4316737260       -2.1558306780
 O          5.9916902863       -3.0403544701       -6.6097426558
 H          5.7466344868       -3.9715577310       -6.4208352971
 H          5.1321767637       -2.5814100874       -6.6349602389
 O         -9.0658392166       -0.4714487953        4.5509541082
 H         -8.3564226342       -0.2555123291        5.1735006012
 H         -9.6212419146        0.3268935390        4.4948029573
 O          6.4485241751        2.8654965099        5.2513955762
 H          6.7141789793        2.1901984604        5.8837127799
 H          5.4963886123        3.0118149892        5.3675149333
 O         -8.2115266710        5.4947984991        3.0170268005
 H         -8.1668133338        4.6351115419        3.4727110587
 H         -7.3082290047        5.8394215031        3.0454281638
 O          3.9749367958       -4.9144091200        6.5004082436
 H          3.7077565950       -5.4388262516        5.7299258673
 H          4.9083556195       -4.6997184069        6.3821581663
 O          1.3686683470        5.5492267762        3.4256874372
 H          1.2795232828        4.9301661247        4.1798225645
 H          1.6137313599        4.9469810154        2.6872043000
 O          7.6756478363        1.2829541283       -4.0222688129
 H          7.2699099649        0.8402353949       -4.7870180937
 H          6.9366852976        1.6632195914       -3.4771251162
 O          7.5011691723        0.2855184413        6.1760692959
 H          7.9592548552       -0.5509296131        6.3509573478
 H          8.0547145171        0.6844857592        5.4719765457
 O         -3.2545901270       -1.8597290028       -3.3972769799
 H         -3.5369596722       -1.7591055385       -2.4677021200
 H         -4.0428605604       -1.6848385800       -3.9532643893
 O         -5.0673621026       -6.3426099441       -2.4550663102
 H         -4.6747371202       -6.5522967929       -3.3025178472
 H         -4.6584245392       -5.4775954027       -2.1730826687
 O         -4.0341521120       -7.4754668549       -0.1740662978
 H         -4.4571467899       -7.2314189221       -1.0167846097
 H         -3.1253801796       -7.7243458587       -0.3992557283
 O          1.3002540113       -3.8352660017        0.4026327844
 H          1.2150271647       -3.6710177027       -0.5533095010
 H          1.5986768258       -4.7540261313        0.5308548828
 O          9.0600068301        1.1311471561        4.1447098907
 H          9.6464833098        1.8888356972        3.9629040037
 H          8.3192204818        1.2233792272        3.5060952418
 O         -4.3267333786        4.5977867139       -5.6950423177
 H         -4.2024833396        4.4040955669       -4.7404978619
 H         -4.4320666233        3.7418882289       -6.1250386534
 O          0.3054202113       -6.4121597969        3.3133710480
 H         -0.0516851188       -5.9435329429        4.0802263278
 H         -0.3445173120       -6.2643970746        2.5911359203
 O         -0.1268126640       -4.7105676380        5.5706688401
 H          0.5793198493       -4.2231697660        5.0765031681
 H          0.2634340980       -4.9745224785        6.4033297217
 O          8.5017365203       -5.0069894107       -0.7667453861
 H          9.2063285092       -4.4033229079       -0.4477751860
 H          8.6597350322       -5.0537797679       -1.7300963912
 O         -6.0820573055       -4.9070444113        3.6554134542
 H         -7.0597905636       -4.7979366751        3.6739397028
 H         -5.9408027850       -5.7171485344        3.1485376285
 O         -4.9625888938        0.5499483547        1.4734243191
 H         -4.8414009972        1.3208179955        0.8758696537
 H         -4.1187361148        0.4531634910        1.9523099587
 O         -6.8150793449        3.2986631248       -1.7669843700
 H         -6.2586020755        3.7282262459       -2.4385603751
 H         -7.7328326813        3.5614377390       -1.9619297987
 O          1.6227451670        6.0473574456       -0.1002274058
 H          2.1589238710        6.3944117670        0.6354377338
 H          2.2685987062        5.5050378637       -0.5957981612
 O         -8.5416588410        2.1992022214       -4.4614622118
 H         -8.8723817395        2.9259622869       -3.9138976171
 H         -8.9481399475        1.4145456974       -4.0589958564
 O          0.1220030996        2.2152595275        2.7071979111
 H          0.2824574687        2.8341080432        1.9809150979
 H         -0.7999054182        2.4003480825        2.9783162182
 O         -2.2941419532        4.3370846900       -1.5344981746
 H         -1.6288291853        3.6490021330       -1.7291391912
 H         -2.5109944856        4.2840243566       -0.5829638673
 O          8.2061849153       -1.0130403572       -2.8168239510
 H          7.5639265927       -1.6029903236       -3.2696707916
 H          8.0144803536       -0.0997777638       -3.1299122416
 O          3.7454235357        2.9372872635        5.0074102244
 H          2.8354852476        3.3056309348        5.0341280545
 H          3.6141434782        2.0734494824        5.4735264115
 O         -2.1928990484        4.8537940197        5.2241838097
 H         -3.1340753489        4.9414235893        5.4885440508
 H         -1.7529141269        4.3021097754        5.8857560593
 O         -4.8500679855        4.8502506728        5.5003407266
 H         -4.9354197335        3.8779064343        5.4509209165
 H         -5.1793700634        5.2072673152        4.6682534719
 O          0.1878463356       -1.5932346744        6.4634146672
 H          1.1029606777       -1.9016667244        6.4094311952
 H         -0.1158028978       -1.4173344625        5.5549897580
 O          2.9387392831       -6.0858079057        4.1581262289
 H          2.0599064136       -6.4506870921        3.9742580278
 H          3.5373276740       -6.4322500020        3.4839322324
 O         -9.3589709748        3.9670218140       -2.5045558871
 H        -10.0921834319        3.5680318422       -2.0069797433
 H         -9.3497712652        4.9070461830       -2.3083119770
 O         -6.8309940393        0.4478471932       -5.8421936055
 H         -6.1933350454        0.9679253406       -6.3529732187
 H         -7.3350383613        1.0897374591       -5.3167980591
 O        -10.2970893959        1.9624104895        4.3654194387
 H        -10.7431678887        2.3057833969        3.5836549044
 H         -9.4604988741        2.4579257014        4.4243568968
 O         -8.7627118040       -5.6367324109        0.6393540863
 H         -7.8833050929       -5.9485092849        0.9295765234
 H         -8.7262403786       -5.6770505126       -0.3241695620
 O          4.9462886421       -5.2946546750       -5.6009307848
 H          5.2515827507       -5.5511392573       -4.7135177871
 H          3.9991079330       -5.1188717250       -5.4979925322
 O         10.5693893312       -1.7009145242       -3.6634178476
 H          9.6680117614       -1.4625086749       -3.3106617138
 H         10.4526946020       -1.9936334709       -4.5675536727
 O          5.2511177870       -1.1187469799        5.6625743282
 H          5.2722319654       -1.0723704434        4.6771688912
 H          6.0212350232       -0.5818589582        5.9439180269
 O         10.4411624417       -3.0640203354        2.7568098090
 H         10.7366119094       -2.2614605519        3.2485933446
 H         10.4024821799       -3.7973867626        3.3688009304
 O          8.5257616379        1.9160384898       -1.4356713339
 H          9.4317334598        1.6018561526       -1.2590482132
 H          8.6115309125        2.7502856151       -1.9012749712
 O          6.3593330797       -5.5192009315        3.8858349866
 H          6.4802604483       -4.9758510050        4.6833908715
 H          7.0707841891       -5.2349331508        3.2693822389
 O          3.1583570578        0.5790055737        5.9526186783
 H          2.6308252111        0.1968617195        5.2178371380
 H          3.9423224998        0.0083098295        6.0221936832
 O          8.5707113454        4.8487618774       -2.3144276277
 H          8.4462419454        4.5371128464       -3.2421209459
 H          8.1701707307        5.7473543379       -2.3170434061
 O          8.0037460544       -4.4969429180        2.0721194877
 H          7.3942459650       -3.8012976726        1.7274187778
 H          8.2808086018       -5.0023008661        1.3048364663
 O          9.2825982957        0.5187535653        1.3895260428
 H         10.2516624448        0.4469759396        1.4381802396
 H          9.0580230683        1.4706994963        1.3354840407
 O         11.8303842225       -1.3397577392       -1.0703475796
 H         11.7350549832       -1.5264911904       -2.0117358782
 H         11.2984265627       -2.0395513769       -0.6284101694
 O          6.4659727783       -3.5992854274        5.8330940055
 H          5.9387406559       -2.7804398352        5.7693729643
 H          7.3799188734       -3.2887120413        5.8776858346
 O          0.0364105270        0.4771301092       -6.9795801077
 H         -0.6948830114        1.1021994623       -7.0970054578
 H         -0.2594590533       -0.3637373230       -7.3374509404
 O         -0.8526786491        7.4497178802        0.7529966008
 H          0.0474412357        7.2420291723        0.4823914376
 H         -1.0057140149        6.9310946174        1.5688475999
 O         11.6978015768        2.9021985050        0.7597146615
 H         11.4835456507        2.3418691843       -0.0123922035
 H         11.4260847836        3.7907708531        0.4927830350
 O         11.0005887676       -0.7732816160        3.9770660568
 H         10.2707796175       -0.1220742518        4.0561861532
 H         11.5787173683       -0.4113235995        3.2931845333
 O          5.3112765834        3.7075444196       -5.5509564974
 H          5.4518837068        3.0242967686       -6.2507751504
 H          4.6018655776        4.2802370314       -5.9268627959
 O          5.4626777820        6.4701142765        0.1258659686
 H          4.9678026902        6.9665930450        0.7841617216
 H          4.7793720695        5.9147711201       -0.3271067041
 O         -8.6998551904       -4.5411360972        3.2954067881
 H         -8.9233934860       -5.0833274029        2.5310808518
 H         -8.5842702086       -3.6197508889        2.9413613762
 O          1.6171523036       -0.3927278370       -0.3434412113
 H          0.7698807926       -0.6009751203       -0.7708434659
 H          2.2143459944       -1.1312777470       -0.5683172066
 O         -1.0755156349       -0.7285827861       -0.5024133366
 H         -1.3076165353        0.1897770774       -0.6576484377
 H         -0.8410708635       -0.7313355726        0.4533463178
 O          0.1601689836       -0.2356522802        1.7035669897
 H          0.9589417815       -0.3812864422        1.1740627421
 H          0.1950496983        0.6625901563        2.0629334438
