  146
       -243.92521529
 H         -0.6619673489        1.2467243185       -0.8219804645
 C         -1.2414237997        0.3366077545       -0.9930945048
 H         -1.6331125222        0.3622749624       -2.0120504709
 C         -2.4064142197        0.2701443118        0.0037037248
 H         -2.7100456714        1.2893798459        0.2347258137
 H         -2.0780999707       -0.2090999338        0.9261672015
 N         -3.5792418748       -0.4470593514       -0.4778261761
 H         -3.8261979209       -0.1142881031       -1.4040688791
 H         -3.3906718746       -1.4451158026       -0.5391573227
 O         -0.3751893655       -0.7795610167       -0.9130625079
 H          0.1332147767       -0.6739897692       -0.0652777781
 O          0.6212346127        2.8689354862        1.3588708648
 H          0.1103526131        2.4110167244        2.0409227579
 H          0.0087268046        3.0954142832        0.6383056244
 O         -1.6866521317       -0.4981326898        4.8507576546
 H         -1.0143179084       -1.1279373767        5.1308979577
 H         -2.3203422252       -0.9938337724        4.3091245445
 O          7.2819194792        0.0291097134        1.4086963280
 H          6.8097505654       -0.8205570260        1.3988133936
 H          7.1610863823        0.4043597180        0.5231421516
 O          2.9722732147        2.6559483375       -1.7443377628
 H          2.4373714656        3.4646774604       -1.6652493356
 H          2.8774967044        2.1856810835       -0.8886334229
 O         -0.7980823614        1.2353177759        3.0510416084
 H         -1.0887492442        0.6291669165        3.7778738102
 H         -1.6093692120        1.7211140622        2.8094423047
 O         -6.3779797469        2.6858378810        0.0523521920
 H         -7.0763118820        2.9729269974        0.6406297385
 H         -6.1414746131        1.7522204323        0.3358703791
 O          5.5918829412        1.2781536806        3.1011815489
 H          6.3409065277        0.8962916159        2.5956236202
 H          5.3470170270        2.0923471839        2.6331412201
 O         -3.7061033868        1.9248264469       -2.4714199368
 H         -4.6393849469        2.0357887159       -2.7133157431
 H         -3.6126158965        2.3854796013       -1.6195501140
 O          2.0706414127       -3.0928133693        0.8438360813
 H          2.8258203398       -3.6725487455        0.5739359132
 H          2.2189438912       -2.9443449598        1.7951633042
 O          1.6690586567        0.2733152457        4.3761494190
 H          1.0315211348        0.8687017230        3.9712409774
 H          2.3873373060        0.1321766796        3.7327235131
 O          3.0224458182       -2.8130562912        3.3835486272
 H          3.8435612099       -3.3070078556        3.3534891926
 H          3.2594121807       -1.8803547778        3.2131135061
 O          1.4036479350        4.8836846326       -1.3493600070
 H          1.2463105017        5.4481394833       -2.1063935370
 H          0.5344910637        4.5224358879       -1.0838863747
 O          2.3464437638        0.4708472223       -3.1676125832
 H          2.6506731345        1.3089636420       -2.7672771175
 H          2.2603670283       -0.1503504935       -2.4280391178
 O         -1.2947246678        2.9606412043       -3.3030349334
 H         -2.2004305656        2.6201490359       -3.2144000169
 H         -0.7708886340        2.2339404125       -3.6859238517
 O         -5.7564778599        0.2807388662        0.7840885597
 H         -6.3707410065       -0.4347269867        0.5620492545
 H         -4.8893092861       -0.0058237139        0.3401459957
 O          5.5839257261        3.2268140633       -1.0864918555
 H          4.7199159339        3.0880729716       -1.5139191804
 H          6.0506814354        2.3800343164       -1.1590564972
 O          0.1327146948        0.8949810008       -4.4351219389
 H          0.3611506932        1.1166429481       -5.3378611273
 H          1.0019769096        0.7990827056       -3.9444258171
 O          1.5250747880       -3.8222195617       -2.7655299055
 H          1.1650453935       -3.0528620407       -3.2303953997
 H          0.9595680601       -3.9125701260       -1.9753796766
 O          0.6872379497       -2.1637749315        4.7274742566
 H          1.0158805733       -1.2306308450        4.6827284026
 H          1.4877171191       -2.6886330353        4.6026427926
 O         -2.4341555608       -2.7344169069       -3.4879911456
 H         -1.5102454559       -2.3744542187       -3.4919688353
 H         -2.4621633592       -3.4300069767       -4.1445464906
 O         -4.7870858383       -3.0440591480        1.1778144618
 H         -4.1660848461       -3.3027031749        0.4796863510
 H         -5.5341577275       -2.6365075869        0.7171862501
 O         -0.1421898302       -3.5185617211       -0.5895989678
 H          0.6133986320       -3.4876322966        0.0276179916
 H         -0.3442742070       -2.5843180982       -0.7616708664
 O          0.6862704949       -0.4419038534        1.4786918340
 H          0.1589720140        0.2012003413        1.9840571175
 H          0.3878041553       -1.3111264485        1.8010803469
 O          4.5927333944        3.1821319199        1.3706988389
 H          3.9926899349        3.9520606153        1.4476759953
 H          5.0897624772        3.3047765924        0.5261743868
 O         -0.5233839988       -2.6582876537        2.4468866233
 H         -0.3383488856       -3.5538151875        2.1624530354
 H         -0.1283533961       -2.5403383873        3.3502212276
 O          3.6522130464       -0.3205336314        2.5288405430
 H          4.3991944269        0.2678245488        2.8545108728
 H          3.2088861134        0.1965708126        1.8268848793
 O          5.3669592899       -1.9633754732        1.1012337661
 H          5.2753096342       -1.6987080690        0.1616231977
 H          4.7237584239       -1.4197861401        1.5958454308
 O         -6.8926468701       -1.8866057206       -0.3588525392
 H         -7.6450018621       -2.4646220080       -0.4833030806
 H         -6.7071889612       -1.4793635129       -1.2414096603
 O          4.3025081753       -4.3569965601        0.2837378497
 H          4.8560844443       -3.6418111195        0.6492324239
 H          4.3569149514       -4.2703250053       -0.6831291974
 O         -6.4633553326        2.1935149731       -2.5848864549
 H         -6.5048599355        2.4270655544       -1.6330627020
 H         -7.0312086764        2.8026522199       -3.0562452796
 O          4.9169729121       -1.3560562246       -1.4891664875
 H          3.9829669552       -1.0999153785       -1.2932423406
 H          4.8349657402       -2.1940460057       -1.9704794363
 O         -0.9467495478        3.6490421327       -0.7804909151
 H         -1.0247951053        3.3753582664       -1.7300881966
 H         -1.8517789922        3.8364189584       -0.5030097543
 O         -6.5080193709       -0.6413066287       -2.6635886060
 H         -5.6827757283       -0.7694193133       -3.1714090649
 H         -6.6216589740        0.3185356055       -2.6270206592
 O         -0.0336425179       -1.6460145433       -3.4576991452
 H         -0.0062809688       -1.3365270283       -2.5313317580
 H         -0.0376346442       -0.8307316604       -3.9881736388
 O          2.4390186812       -0.9145290649       -0.7451985538
 H          2.4211712614       -0.1366786440       -0.1667688361
 H          2.2503326855       -1.6852543501       -0.1680663445
 O         -3.0923942687       -1.6775212267        2.7770261833
 H         -3.7717101796       -2.1851769879        2.2854360136
 H         -2.2403129162       -2.0708313050        2.5266654455
 O          2.5260797154        4.9034514931        1.2577479072
 H          2.3396785507        5.1229317660        0.3358469558
 H          1.8273047624        4.2816689684        1.5116845002
 O          4.1446357312       -3.8141677220       -2.4252981988
 H          4.4478357788       -4.4523768957       -3.0704991865
 H          3.1575275355       -3.7800470783       -2.5235423148
 O          2.7828810734        1.4515448244        0.6726216900
 H          1.9534712490        1.8822843942        0.9651157606
 H          3.5166027358        2.0562789134        0.9860094667
 O          6.6792695444        0.6683543791       -1.2739111531
 H          7.3893594582        0.5179712776       -1.8979264448
 H          6.0148512252       -0.0335872681       -1.4275735630
 O         -4.1016354087       -0.5885919767       -3.9004088344
 H         -3.5010987815       -1.3369892049       -3.7387188804
 H         -3.6833858917        0.2117988772       -3.5636880031
 O         -3.0591062814        2.6422222123        2.4945598453
 H         -3.1629373525        3.2858920021        3.1960604412
 H         -3.6569945054        1.8645737775        2.7445397004
 O         -4.5292846780        0.6358741803        3.1278283729
 H         -5.1270506340        0.5015051588        2.3666649565
 H         -3.9713953073       -0.1609429383        3.1319209527
 O         -3.6949702959        3.4089167955       -0.0513868491
 H         -4.6633593470        3.3564211205       -0.0524111666
 H         -3.4387799010        3.1775760741        0.8630865638
 O         -2.9108127416       -3.3624993592       -0.8358223298
 H         -2.0188412047       -3.6468433534       -0.5911088198
 H         -2.8785619196       -3.2199167025       -1.7955438380
