  459
       -779.14686725
 O          1.8268340400        2.7295948266       -3.7293184975
 H          2.2809941124        3.2683257644       -4.4051731883
 H          0.9886833060        2.4256846578       -4.1261309881
 O          1.7449075763       -0.0125932485       -4.5359467861
 H          1.6520348922       -0.6136099082       -5.2902476134
 H          1.1928668538       -0.4210720972       -3.8361019705
 O         -2.6788623772       -0.5966243970       -6.4048004994
 H         -2.3437053878       -0.8708012246       -5.5331009339
 H         -3.4315340548       -1.1832217849       -6.5527272185
 O          5.5482835161        3.4207779904       -5.1508476138
 H          5.3229096727        3.1127765902       -4.2466839833
 H          5.5239159688        2.6161049087       -5.7094926909
 O         -4.7074245900       -2.5550311669       -2.9384299430
 H         -5.1183979740       -1.6828808893       -2.8674552478
 H         -4.2539158565       -2.6999582090       -2.0732866897
 O          1.4111500803        5.8670907818       -4.6477817318
 H          0.5419467120        5.5073921417       -4.8836575358
 H          2.0189282522        5.4464573588       -5.2759377817
 O         -1.9726572029       -1.7167352628       -4.0411699543
 H         -2.2754001521       -2.5765788355       -3.6801521755
 H         -1.2370064025       -1.4497353461       -3.4534750529
 O          0.8280505549        4.2372219374        1.8733813518
 H          1.1808709236        5.0130956697        2.3439080144
 H         -0.1006624163        4.1604984681        2.1462674354
 O         -0.3400153389        4.6284016341        4.8332055639
 H         -0.7270719948        4.0604021363        4.1517224099
 H         -0.7991295925        4.4035896005        5.6498436331
 O          0.4172055315       -1.5665928406       -2.8435646408
 H          0.4994870273       -1.5407658985       -1.8719137832
 H          0.8561061644       -2.3788097613       -3.1292741136
 O          2.0167196381        0.9506365121        0.5089733114
 H          2.4902996480        1.5218091193        1.1429736068
 H          2.4168050995        1.1168533896       -0.3730767472
 O          3.8110864618        3.2344322099        0.0469757180
 H          4.2866240274        2.3857913255        0.0645428713
 H          4.4331929937        3.9405079349       -0.1918616079
 O         -2.5091066875       -1.6246382749        2.1355567887
 H         -2.7549357857       -2.5744620204        2.0919398381
 H         -3.3438127238       -1.1366687561        2.2169999157
 O         -1.3163486852       -6.6320318764       -3.4512808445
 H         -0.6042578877       -6.5940110682       -4.0991111340
 H         -1.6233134025       -5.7015740827       -3.3901102019
 O          1.2347606059       -1.5742676038       -0.2701825338
 H          0.8344604970       -2.0696746477        0.4760688974
 H          1.5230890280       -0.7277091245        0.1024280118
 O         -1.0491869239       -3.4370116507       -0.7710806840
 H         -0.1562944864       -3.4723087793       -1.1491680563
 H         -1.1108436004       -4.1941225745       -0.1500049969
 O         -0.5035143854       -3.2526397282       -5.8537178715
 H         -0.1326103471       -4.0107667140       -5.3627438582
 H         -1.0433706423       -2.7420244976       -5.2243234040
 O         -3.1050410515        1.5477812399        3.7672055724
 H         -2.1270963401        1.5010450892        3.6857575509
 H         -3.3233497362        2.4318017829        4.1223330791
 O         -1.7705845314        3.8206704350        2.6444919870
 H         -2.2948898752        4.5874203021        2.9475316223
 H         -2.3837052812        3.3303466971        2.0704172866
 O          0.1992946263       -2.5414911505        1.9408878870
 H         -0.7317991584       -2.3058778086        1.8829554384
 H          0.6018610783       -1.9590667472        2.6114034116
 O         -1.4179300651        5.2674951273       -2.7773141551
 H         -1.2366705175        4.7030065123       -1.9986470273
 H         -0.8529997480        6.0667727246       -2.6540594709
 O         -4.3469521643       -0.1964712501       -0.1324476746
 H         -4.8111352153        0.5106925691       -0.6127390706
 H         -4.5965482844       -0.1103786647        0.8030890035
 O         -2.6065875368        2.3916705751       -3.4368781853
 H         -1.7869922832        2.1845038424       -3.9253231467
 H         -3.1870429156        2.8899595747       -4.0548823328
 O          3.2867960076       -1.5715676064       -1.9714706507
 H          2.6309661243       -1.7649557286       -1.2819725146
 H          2.9978412883       -2.0413447707       -2.7709088618
 O          1.6274325744        3.7788875589       -1.2847308065
 H          1.7240152595        3.4520142591       -2.2007875241
 H          2.4155504450        3.4769744107       -0.7773839398
 O          6.9328035268        1.8848539720       -1.2119737669
 H          6.7038466259        0.9572991597       -1.3846487134
 H          6.3110198877        2.4025872767       -1.7627573131
 O         -3.6444680118       -2.8010284221       -0.5197077095
 H         -3.9739998896       -1.9292640973       -0.2393494097
 H         -2.6765654404       -2.7378387827       -0.5407355484
 O          6.8535326561       -0.8659934936       -6.1956947843
 H          6.3744444939       -0.1681889478       -6.6634010403
 H          7.3049938714       -0.3879837836       -5.4746476355
 O          1.7548746307        6.2879340394       -0.3339855846
 H          2.4628183828        6.2956162216        0.3357612163
 H          1.7508382106        5.3767431100       -0.6940692300
 O         -7.2707100762       -5.1168105445        2.5991068134
 H         -7.9601453525       -5.1716718358        1.9325364192
 H         -7.6953437400       -4.8250557339        3.4266025052
 O         -3.5570669054        3.7948618031       -1.3997588537
 H         -3.0160163282        3.3783892260       -2.0943619035
 H         -3.2130070921        4.6942279988       -1.2739333311
 O         -4.7699644938       -0.1333761248        2.5237218827
 H         -4.2478046889        0.6044778527        2.8868278332
 H         -5.5982443052       -0.1727666733        3.0325794974
 O         -0.4478823474        2.0365563407       -4.9898202871
 H         -0.6096577537        2.9312160412       -5.3415549685
 H         -0.3855733549        1.4253558637       -5.7513351196
 O          0.4944859675        2.1056516818        5.9327567098
 H         -0.2975732363        2.4108138466        6.3956337554
 H          0.7357838512        1.2333918564        6.2933680780
 O          3.0508525545        4.0601746593       -5.7843311696
 H          2.7796798516        3.3379378978       -6.3732195075
 H          4.0174394565        3.9438515503       -5.6397984006
 O         -6.2330007801        2.1919370205        1.4364758849
 H         -6.6879417454        1.3410277308        1.2978450541
 H         -6.1639859847        2.3132408585        2.4078277035
 O          6.0822189828        2.2595794583        4.4270398236
 H          5.4929686189        1.5842148599        4.0169593651
 H          6.9353668390        1.8335974599        4.5444614285
 O         -5.8635951685        5.6747960046       -1.6123837718
 H         -5.3436290615        5.5013195512       -0.8190806209
 H         -5.2183356058        5.8070711496       -2.3414601218
 O          0.3096627662        7.2399831467       -2.4660453115
 H          0.8234038335        7.0701104069       -3.2654148251
 H          0.9023405648        7.0662319907       -1.7169355506
 O          2.4632605745        3.8304862137        4.9446579005
 H          1.6358451247        3.4931244692        5.3197908810
 H          2.6052858460        3.3227720268        4.1199094618
 O         -6.5989896585       -0.5105042497       -2.4120222686
 H         -7.4386537964       -0.1617225282       -2.0432251103
 H         -5.9832240518        0.2424243108       -2.3871925306
 O         -6.7051555966       -2.0758817981        5.8126303890
 H         -7.3214036525       -2.7736923917        5.5463252594
 H         -5.8173812159       -2.4020325000        5.5739806562
 O         -5.4826059862        1.8119285623       -1.5052920524
 H         -6.3015164836        2.3429811028       -1.5099260752
 H         -4.7732865393        2.4571613928       -1.6195793119
 O         -2.9556277991        6.4708375009       -0.6870237028
 H         -3.3627993979        7.0852350241       -1.2998584271
 H         -3.5751043967        6.3170520813        0.0467779520
 O         -3.3902090468        5.8212226838        3.5156496993
 H         -3.8912587638        5.9615783107        2.6953921283
 H         -2.6472222580        6.4667350542        3.5489265869
 O         -4.0573482803        0.0028492467        5.6395863271
 H         -4.9388630067        0.2950454328        5.8703289335
 H         -3.7056736638        0.6198096002        4.9477818681
 O          5.1884830649       -4.7788286805        4.8129894112
 H          4.9858601961       -5.3072047098        5.5848160085
 H          6.0623729307       -4.3414017450        5.0032765547
 O          1.1924248143       -4.3200773738       -2.0116888898
 H          2.1297445509       -4.2768413455       -1.7640943889
 H          0.8610827015       -5.1865599253       -1.6773839731
 O          2.2372245771        1.6525507906       -6.7225094187
 H          2.0447469688        1.2735521961       -5.8474733511
 H          1.4691735097        1.4469501041       -7.2635932773
 O          3.7518904974       -4.3902921610       -1.1259469968
 H          4.1061408051       -5.2589474088       -0.8162075467
 H          4.4099949166       -3.6902993898       -0.8790121743
 O         -1.0043802471        6.9305626055        3.4951247596
 H         -0.6872423882        6.1621035180        4.0067660894
 H         -0.7981550796        6.7489640976        2.5595343444
 O         -4.1209181941        1.7208987346       -6.7913504664
 H         -3.3968481473        1.0760962703       -6.7670364511
 H         -4.8677368354        1.2379219975       -6.3886382051
 O          7.9108511038        3.1259649125       -3.6959770399
 H          7.3053076115        3.4507189081       -4.3765212247
 H          7.8070400506        3.7336689605       -2.9384269935
 O          5.0341027219        5.5206591398       -0.7914859881
 H          4.7396285342        6.0467556824       -0.0377688722
 H          4.4033704426        5.6697981298       -1.5132413209
 O         -0.4753327400        1.2514974099        3.6301450108
 H         -0.4401357476        0.2838115032        3.7632352410
 H         -0.0409689893        1.6560667868        4.4113772068
 O          0.9192739635       -0.5554074378        6.3057008220
 H          0.9566699755       -0.7048214165        5.3416886304
 H          0.0008798877       -0.7158578555        6.5825149007
 O          3.7321164150        6.1562947849        1.5682406517
 H          4.2169561077        5.3702521818        1.8791922143
 H          3.1605607494        6.3916386012        2.3136202831
 O         -0.9992433145       -1.3286979366        4.2322264726
 H         -1.6935113969       -1.3930215724        3.5365335769
 H         -1.4298057752       -1.1577194790        5.0943367009
 O         -7.4181509371        3.5908714524       -1.9431703098
 H         -6.8736578533        4.4153220276       -1.8788893701
 H         -7.3931003219        3.3318882278       -2.8762398833
 O          4.9644070659        1.1440767472       -6.4210945866
 H          4.0910902571        1.2980692881       -6.8052551959
 H          4.7963756197        0.6447604593       -5.5886606902
 O          4.8576956054        2.8164517592       -2.6295066635
 H          4.2151064302        2.1161535236       -2.3838698589
 H          4.3786401269        3.6552052542       -2.5523265458
 O          1.4570895792       -1.7753429813       -6.5942094901
 H          0.6927110462       -2.3891179774       -6.3611519459
 H          1.9438298224       -2.1648152468       -7.3195771178
 O         -5.8070156681        0.2789438286       -5.2234051368
 H         -5.1090817074        0.2157308663       -4.5174424055
 H         -5.8638853448       -0.6148447100       -5.5784971259
 O         -4.2922319193       -2.4950405259        4.6091054964
 H         -4.1503583645       -1.5632792593        4.8644616859
 H         -4.7324854855       -2.4971873436        3.7447911370
 O          0.6779030641       -5.2676757305        2.5415883740
 H          0.3117242099       -4.7897608806        3.3096220077
 H          1.2355506460       -4.6167844803        2.0798259887
 O          1.6651768486       -0.9341901575        3.6166654616
 H          2.2959610691       -1.6268842775        3.8761334996
 H          2.1501522731       -0.3761551293        2.9987576917
 O         -5.5890777124       -3.0200949686        2.2098609238
 H         -5.7517544502       -2.6125636736        1.3445866391
 H         -6.2499061047       -3.7265962143        2.3219548685
 O         10.2173227250       -1.0437867554        1.3329718754
 H         11.0206463525       -1.3486006414        0.9125661855
 H          9.4759780707       -1.2201794673        0.6966029897
 O         -1.3348897618       -5.5315082072        0.8324520233
 H         -2.1281611692       -5.1671001045        1.2597067631
 H         -0.6095611972       -5.4674266372        1.4962049646
 O         -3.9641346572        5.9512397968       -3.4939587396
 H         -3.0505002797        5.7882270293       -3.1924459944
 H         -4.1416705368        5.2677354765       -4.1544385864
 O          7.6255971073        0.4566304054       -3.9367371081
 H          7.7219660451        1.4302779017       -3.8617222651
 H          6.9064512806        0.1831351761       -3.3430832843
 O          4.7703477876        0.7300998485        0.2848664521
 H          4.9675756950        0.3333174980       -0.5847292618
 H          5.5913204328        0.6686066152        0.8073573771
 O          2.0484783047       -7.0995681787        0.6760105290
 H          1.3904193137       -7.0833236082       -0.0342774378
 H          1.6498103777       -6.6493218991        1.4287072078
 O         -4.8106889468       -2.3233118909       -5.7033553445
 H         -5.0387071587       -3.1916200965       -6.0334050276
 H         -4.5877214010       -2.4343813604       -4.7627585098
 O         -0.2343116631        0.3650342417       -7.1124539825
 H         -1.1405754458        0.0181520965       -7.1014691847
 H          0.3402037281       -0.4122772389       -7.0069587891
 O          5.7843059186       -0.4087797934       -1.9796104601
 H          5.8258216310       -1.3020221944       -1.5992474372
 H          5.1636654939       -0.4766029445       -2.7324148821
 O          3.5677393854       -1.3606997750        1.4042611564
 H          4.1618167850       -1.4263854827        2.1772862671
 H          3.7529920392       -0.4839687631        1.0092781769
 O          4.2141905314        0.5707255071        3.4883749600
 H          3.9102798567        0.3413223223        4.3888977689
 H          3.6345885014        1.2756021280        3.1673313420
 O          4.6370866219       -2.4767949409       -6.0199988160
 H          5.4454013000       -2.0182923435       -6.3098319256
 H          4.9217209200       -3.3269718137       -5.6738403575
 O          2.7393175092        2.6152063068        2.5218060001
 H          3.5510883632        3.1043010839        2.2617213631
 H          1.9894045231        3.1916057848        2.2220653744
 O         -6.3521088188       -2.1149932969       -0.2519232017
 H         -6.6848546278       -3.0086228856       -0.4774769922
 H         -6.3157873040       -1.5999971602       -1.0810273658
 O          4.7295441476       -4.3326366848       -3.6644085699
 H          4.3694924516       -4.3718288569       -2.7567135978
 H          5.4421797289       -3.6493654270       -3.6307391031
 O         -6.8741158614        2.6592793891       -4.5176108109
 H         -7.4484245813        2.9015602630       -5.2443385530
 H         -6.6017790899        1.7338319841       -4.6811456790
 O         -7.4586753875       -0.2012192870        1.1662871884
 H         -7.8755205035       -0.7181741526        1.8744835999
 H         -6.9017291469       -0.8548601608        0.6916390662
 O         -0.8431332060        3.9629048522       -0.4780002944
 H          0.0971463068        3.8777842259       -0.7599056121
 H         -0.8604812755        4.7466042781        0.1131658945
 O         -0.6631088847        6.3066208637        0.8303700606
 H          0.2359353475        6.4349503619        0.4527716199
 H         -1.2984380315        6.7198215143        0.2313999245
 O          2.7363012781       -3.8839380570        1.3520149200
 H          2.8555717920       -2.9139128076        1.3309769402
 H          2.8584912650       -4.1641931811        0.4266077672
 O          9.3498903324        1.5987342125        1.2926360217
 H          9.5810446920        1.8335483358        0.3749680111
 H          9.8698289618        0.8074876678        1.5027672438
 O          4.3645983423       -0.3505880246       -4.2887076969
 H          4.4778179945       -1.1965919051       -4.7575760723
 H          3.3978928938       -0.1807733303       -4.2740355761
 O          1.8886472175        6.0981642164        3.5703195585
 H          1.2706434814        6.6973803815        3.9934803221
 H          2.0992989833        5.3878812149        4.2138083107
 O         -3.9645002090        0.0899225586       -3.3759527710
 H         -3.2674551622       -0.5708480219       -3.5402048260
 H         -3.4924711287        0.9424051227       -3.3020751569
 O         -3.2048918616       -4.1443033907        2.1589704145
 H         -3.0270291797       -4.6409956869        2.9775891444
 H         -4.1485912636       -3.8748368319        2.1755173570
 O         -8.8398750489        0.1350299470       -1.0854677193
 H         -8.4125536018        0.0515336092       -0.2036090728
 H         -9.3753668968       -0.6659901270       -1.2184279612
 O         -4.1962327783       -6.0235481874       -2.6684198749
 H         -4.3115910521       -5.9547670806       -1.6997597522
 H         -3.5566497647       -6.7201459899       -2.8362158104
 O          3.6241714564        0.1437796610        6.0620458053
 H          3.8449663012        1.0655817572        6.3658850554
 H          2.7570734899       -0.0822860741        6.4114019363
 O          3.5783381740        5.2760122003       -3.0631773028
 H          4.1804629463        5.4760094113       -3.7826351098
 H          2.6848227695        5.4474090576       -3.4097463824
 O          2.4930700638       -2.9506651147       -4.1862310534
 H          2.4869530456       -2.5731764512       -5.0736025953
 H          3.2898183054       -3.5165373044       -4.1278763513
 O         -6.2117873212        2.5655793177        4.1010949045
 H         -7.0135462991        3.1359803554        4.0365328361
 H         -6.5153299047        1.6622935047        4.3059851964
 O          9.5829852528        2.1316700595       -1.3741989687
 H          9.8507873148        2.8694646103       -1.9237874607
 H          8.5990142571        2.1096947938       -1.4316760035
 O         -8.3158752619        4.0354403097        3.5006099504
 H         -8.9601151003        3.4720094187        3.0369374411
 H         -7.9335524972        4.5813198410        2.7979318568
 O         -8.8055078361       -2.0880836355        2.6080575474
 H         -9.0112000271       -2.6673715337        1.8302617728
 H         -9.5418793838       -1.4857795677        2.7574245147
 O          5.4048074187       -2.5552916931       -0.2506677584
 H          4.7456114341       -2.0808257740        0.2949744899
 H          6.0610949587       -2.9351403281        0.3604012428
 O         -3.6794512275        2.8596391484        1.0357335503
 H         -3.5285902030        3.0786462588        0.0911185968
 H         -4.5725901804        2.4713396105        1.1008766374
 O         -1.7684645103       -0.9386741705        6.7515810631
 H         -2.0283397729       -1.8803410850        6.8941453760
 H         -2.6035002507       -0.4593190953        6.6443176511
 O         -9.6538905646        0.3575605881        3.5155517178
 H        -10.0702554150        0.6649745684        4.3213865644
 H         -9.7297298744        1.0945639381        2.8726360843
 O        -10.0195689800        2.5260729423        1.9700990962
 H        -10.9101892774        2.8752418078        2.0155026755
 H         -9.7653737861        2.5924031175        1.0052253199
 O         -7.2106397276        4.6355222949        1.0317024195
 H         -6.9525554508        3.6851610678        1.0339431394
 H         -7.5972640437        4.8191341155        0.1736761076
 O          7.5732521764        4.7523770613       -1.5203820160
 H          6.6919963601        5.1450625820       -1.4265794808
 H          7.7808358508        4.4507302105       -0.6266428196
 O         -1.0327338914        4.6381660598       -5.2913452792
 H         -1.2327680896        4.7935072404       -4.3333922093
 H         -1.7825377558        4.9719016349       -5.7842300852
 O         -4.6493277094        5.4098943028        1.1463481930
 H         -4.2667465316        4.5047808813        1.1805250169
 H         -5.6168975365        5.2859516919        1.2179843574
 O         -0.4359076689       -3.9314773875        4.6813206737
 H          0.2982785851       -3.8442693192        5.3368974843
 H         -0.6090456482       -3.0083488688        4.3884948097
 O         -4.8166241561       -6.4574523527        2.3703723168
 H         -4.3070228805       -6.4056951024        3.1831756462
 H         -5.7095944994       -6.1399050091        2.5648801585
 O         -6.4111563526       -4.5290976321       -3.3060350450
 H         -5.7606577746       -3.7946167281       -3.1823066309
 H         -5.8581654320       -5.3186943154       -3.3617803403
 O         -9.2545510067       -3.6819756005        0.5635649020
 H         -9.6633073188       -3.1816846144       -0.1633363572
 H         -8.4816059849       -4.1036477693        0.1455318629
 O          8.1983093079       -1.4053670888       -0.3425119774
 H          8.6282732777       -1.0201996216       -1.1438397252
 H          8.0981446175       -2.3616839618       -0.5214315840
 O        -10.0126943721       -2.2540832213       -1.6508928145
 H         -9.3505725865       -2.3988993620       -2.3815682065
 H        -10.8746981503       -2.3280602953       -2.0593713144
 O         -8.5211215947       -3.7930902588        4.6018836977
 H         -8.6366862818       -3.0987969004        3.9042941971
 H         -9.3814219592       -3.9703803617        4.9811821233
 O          2.9669584742        1.0444778892       -1.9647922337
 H          2.4214854448        1.3629906715       -2.7013761969
 H          3.1124604879        0.0731829114       -2.0653705491
 O         -2.2694636522       -4.1412084249       -3.0232110470
 H         -1.8757349650       -3.8953461654       -2.1522881491
 H         -3.1229825622       -4.5772946306       -2.8597427627
 O         -2.5254557925       -3.4518852538        6.5236547407
 H         -1.7884855130       -3.8337732077        6.0257237262
 H         -3.2411604450       -3.3230275591        5.8835971837
 O         -1.9007823615        3.2868980666        6.7704083990
 H         -2.1610097213        3.5425835073        7.6544884281
 H         -2.6923510585        3.3862833660        6.2058420381
 O         -2.3553823438       -5.7980210732        4.0947940153
 H         -1.6501291945       -5.2070230137        4.4146044359
 H         -1.9115900592       -6.5713117426        3.7423397606
 O          5.0803700816        3.9311204834        2.4753527046
 H          5.8267746593        3.8131970294        1.8559735824
 H          5.4183298398        3.6136299796        3.3254420942
 O         -8.2321038732       -2.4617772306       -3.5669938633
 H         -7.5855091206       -1.7609324215       -3.3912282780
 H         -7.7354405440       -3.2900137614       -3.6189483840
 O          7.3715692112       -3.5044843967        5.4582053076
 H          8.0515191468       -3.2349833089        4.8266560000
 H          6.9259313141       -2.6878761786        5.7368717774
 O          4.9234891988       -5.3499316255        2.1827642779
 H          4.1138495196       -4.8545488682        1.9513567879
 H          4.9827435170       -5.3553547850        3.1522155806
 O          0.0889027262       -6.5867182986       -1.1960050319
 H         -0.4320239449       -6.7860433652       -2.0059954321
 H         -0.5581127327       -6.3566747527       -0.5089473227
 O         -7.0666936159       -4.6265758555       -0.7190919409
 H         -6.2205793994       -5.0155217979       -0.4017014717
 H         -7.0087314624       -4.6788428972       -1.6965160157
 O          7.2418634280        3.4123916486        0.9617134862
 H          7.0453456398        2.7777618070        0.2436845919
 H          8.0184998141        3.0740752465        1.4169866381
 O          7.1023135153        0.1946781620        1.4961444212
 H          7.8320676316        0.8491302914        1.4158095055
 H          7.3586278748       -0.4963766382        0.8526341773
 O          9.5623733198       -0.4095843561       -2.3603785859
 H          9.8634064445        0.4475021243       -2.0143405924
 H          8.9225036179       -0.1675134051       -3.0701599905
 O          4.5699683227       -6.6912242078       -0.1444523379
 H          4.9277862390       -6.4284157415        0.7185675529
 H          3.6831571644       -7.0450040796        0.0679351204
 O          3.1947843994       -3.1293927968        4.0858928871
 H          2.9053942895       -3.5730344965        3.2803159710
 H          4.0033601599       -3.5916489993        4.3800499466
 O          6.9081401866       -3.6249700030        1.7778016033
 H          6.4606835268       -2.9232379298        2.3099581393
 H          6.3396198457       -4.4090136749        1.9108642496
 O          7.8579990995        0.0539343833        4.1983593410
 H          8.3905182819       -0.7559590836        4.1630132356
 H          7.6243037310        0.2202244641        3.2717469354
 O          8.8938511388       -2.3885103656        3.3442602864
 H          8.3454361822       -2.9205340685        2.7466454525
 H          9.5395669688       -1.9455869081        2.7699025708
 O          5.6419862881       -1.7084567877        3.0186284753
 H          5.6471893319       -1.6214692474        3.9977193802
 H          6.0601066733       -0.9079990617        2.6718944455
 O          6.6363367969       -2.4992491267       -3.7150957150
 H          7.5381999004       -2.8020567437       -3.4752725084
 H          6.7455538860       -2.0346228605       -4.5515796580
 O          1.5747068275       -3.3222116436        6.2537607566
 H          2.2545949376       -3.2702104724        5.5571468559
 H          1.4407119076       -2.4158165678        6.5634668180
 O          5.9035861643       -1.2149787638        5.6120026261
 H          6.5628391213       -0.5365666168        5.3843287367
 H          5.1036698756       -0.7610772853        5.9333395746
 O          8.2011437451       -4.0699120827       -0.6424029879
 H          7.9974276271       -4.2268116636        0.2865725575
 H          7.6172788386       -4.6710122275       -1.1492843302
 O          0.8237207559       -5.2266380915       -4.5253125675
 H          0.9853020926       -4.8044048863       -3.6501219745
 H          1.6867754976       -5.3591810362       -4.9169559850
 O          6.5381080594       -5.7573581750       -1.9178885873
 H          5.9498136761       -6.3148123428       -1.3925862535
 H          6.0631934808       -5.5159212355       -2.7228944010
 O         -3.9647830036        3.7106223112        5.0700878581
 H         -3.8277183059        4.5542364772        4.5999616596
 H         -4.8673665817        3.4146341168        4.8514929078
 O         -6.9619604338       -0.0124632179        4.1935533592
 H         -7.8914664639        0.0271308056        3.9184310263
 H         -6.8949470995       -0.7638924672        4.8332308093
 O          4.3262495367        2.6113157632        6.5047628552
 H          5.0993250496        2.6328070180        5.9147668935
 H          3.6608324276        3.1781200230        6.0698037550
 O          9.1651160775       -3.1027362227       -3.0853667086
 H          9.5759481950       -2.2480351577       -2.9032374230
 H          9.1174576392       -3.5818574467       -2.2494129974
 O         -4.5891642611       -5.3479568577       -0.1041681873
 H         -4.5098952754       -5.7773008560        0.7668497165
 H         -4.1744515741       -4.4656028905       -0.0553309533
 O         -4.3193505902        3.6574391521       -5.0259703622
 H         -4.1670049592        3.0764959850       -5.8087839139
 H         -5.2153382345        3.4249346451       -4.7279712872
 O         -9.5807526426        2.6711022792       -0.5821862909
 H         -8.8588430343        3.1412923141       -1.0330398672
 H         -9.4649345513        1.7441267747       -0.8601285226
 O         -1.8181802903       -0.2520903266       -1.4235554370
 H         -1.3803139781        0.1927699154       -0.6695324396
 H         -2.7506427052       -0.0874657124       -1.2552140542
 O         -0.7106329584        1.3292709932        0.4506652083
 H          0.1991109447        1.2316354304        0.7604966764
 H         -0.8488466153        2.2733853151        0.2851319246
 O          0.3265670250        1.2090652737       -2.3178516537
 H         -0.4795866582        0.6891635627       -2.2453564592
 H          0.5120756460        1.5192046934       -1.4285507541
