  387
       -651.65599856
 H          0.8561509876       -0.6907238675       -1.4973559744
 C          0.5658363405        0.2858014496       -1.1140998138
 H          0.5278244826        1.0028214639       -1.9354377555
 C          1.5585309384        0.7564362059       -0.0666385835
 H          1.2250407811        1.7016028596        0.3508659527
 H          2.5380151268        0.8675838773       -0.5170442959
 O         -0.7134695099        0.1231500816       -0.5528380718
 H         -0.9708107891        0.9680291677       -0.1133580048
 N          1.6452906880       -0.2365993349        1.0090749670
 H          2.3050862274        0.0719271915        1.7398998167
 H          2.0089966620       -1.1330516735        0.6070391918
 H          0.7019726926       -0.3706139032        1.4376622049
 O          1.4866492677        3.4461154906       -1.4030879471
 H          0.5229025664        3.3494734907       -1.5546845660
 H          1.7749263619        4.2321092581       -1.9189385581
 O          1.0791334251       -3.6043546359        5.5480870892
 H          0.3410475404       -3.2273137498        6.0702412303
 H          0.9973163448       -3.1430281376        4.6730855017
 O          5.4497311634        0.5434483718       -5.2805691339
 H          5.0856977999        1.4513084114       -5.2712340728
 H          4.7606065059       -0.0273387182       -5.6582316416
 O         -3.7951974758        0.5402430202        3.1154157371
 H         -4.5102162608        1.2005701224        3.0313777812
 H         -3.5721634098        0.2575267749        2.2066825707
 O          1.3540831542        0.2293058925        3.8907360853
 H          2.3312445602        0.2738900033        4.0151985219
 H          1.0048136894        0.1652141888        4.8003113534
 O          0.7827185606        2.6003283328        2.8749965044
 H         -0.1864970205        2.5481383311        2.9545548158
 H          1.1032818667        1.7069119970        3.1426034889
 O          8.0629648809       -3.4669485214        1.6882613594
 H          7.7151570181       -4.2912473322        2.0327702721
 H          7.7537806865       -3.4178251096        0.7480240259
 O         -3.3125626257        4.6959803104       -0.6785516801
 H         -3.9347153032        4.9173600275       -1.4057487836
 H         -3.0849950273        5.5170724954       -0.2427465636
 O          3.4016832281        1.6659930903        2.0986804933
 H          3.6694252221        1.8409324300        1.1809463512
 H          3.4869593231        2.5240583925        2.5417263666
 O         -1.3014145009       -5.7091245027        1.1273569759
 H         -2.2190488981       -5.9817938191        1.0187264098
 H         -1.3136322820       -4.7715011404        1.4385359293
 O          3.4092311448       -1.3310474945        2.7121240668
 H          3.7822741846       -1.6813164023        3.5305887756
 H          4.1109142486       -1.4304136767        2.0495549278
 O         -1.9220525870       -1.2258366521        4.3298610930
 H         -1.3678635927       -0.8097106414        3.6372023024
 H         -2.5850949131       -1.7340975042        3.8339661269
 O         -4.4165516998       -0.7030153702       -6.2073809464
 H         -5.2464437698       -1.0231380859       -5.8246168443
 H         -3.7855056456       -1.4248752564       -6.0409381486
 O          0.8697684736        4.9181217678       -4.8284491365
 H          1.4864841995        5.2890893876       -4.1700318657
 H         -0.0167911232        5.1985148760       -4.5381457119
 O          3.3769350398       -0.9411557573       -6.2456131780
 H          2.7733025177       -1.7003777389       -6.1223541134
 H          2.8045597013       -0.2098120162       -6.5137566985
 O          1.4029099282        1.0600999487       -6.4000352184
 H          1.8415413067        1.9340705785       -6.5852495953
 H          0.7347048886        0.9313063568       -7.0754688196
 O         -2.2024153470       -0.9643573651       -2.3854600756
 H         -2.0420105206       -0.2413087959       -3.0179301187
 H         -1.7422829377       -0.6528335202       -1.5737032980
 O         -2.0722824023        0.5307288480       -7.5472907347
 H         -2.9853592863        0.2531365015       -7.4150210279
 H         -2.0143687051        1.4476718583       -7.2309801393
 O         -1.7582533921        2.1592615256        3.6824444854
 H         -2.5193605714        1.5469008924        3.5580003908
 H         -1.4709926075        2.0905375921        4.6127680046
 O         -2.8465329559       -3.4204531007       -1.0883446321
 H         -1.9833732838       -2.9788506269       -1.0495012518
 H         -3.5081694374       -2.8500748173       -0.6436740997
 O         -0.8516340729       -0.2016331424        2.1387995676
 H         -0.9523685090        0.7609717234        2.1806044397
 H         -1.5282115997       -0.4777594779        1.4951173974
 O          4.3266946621        2.4146244282       -0.3728041963
 H          4.0375298765        2.2162330284       -1.2734799534
 H          5.1479604917        1.8964619848       -0.2264034154
 O         -5.9797775578       -0.8847736791        2.0329281819
 H         -6.3184861483       -0.5658608798        2.8910403621
 H         -6.7703201821       -1.1368517007        1.5328383637
 O          4.9216959312        5.3249815011       -2.1359592980
 H          5.3859885119        4.5125829512       -2.3951128084
 H          5.0233670491        5.3643131773       -1.1689945863
 O          9.0434042104        2.7887023471        2.9302443334
 H          9.8155472104        3.1380202921        3.3749557420
 H          9.0761152015        1.8131233185        3.0295839790
 O         -1.9142818555       -4.9527354066       -3.5973296771
 H         -1.3867860873       -5.3205657004       -2.8685157706
 H         -2.8286498106       -5.0287654632       -3.3157623535
 O          0.6762174336        2.3841421027       -4.0096191120
 H          1.0779759175        1.8986323682       -4.7427490623
 H          0.7527103990        3.3310482802       -4.2435898134
 O         -7.2075567109        1.1025154561       -4.2944444192
 H         -6.9330748413        0.1869220218       -4.5034207956
 H         -7.4153894320        1.5316843165       -5.1239282715
 O         -0.8004250530       -1.0351345878       -5.8054620782
 H         -1.4666902130       -1.7071591410       -5.5608650743
 H         -1.1612699721       -0.5803950443       -6.5940849289
 O         -4.8368869527       -0.4292564444       -2.4181146120
 H         -4.8374161735        0.2638766488       -3.0996239245
 H         -3.8853371074       -0.5536839462       -2.2161053932
 O         -0.4555454324       -2.6427356655       -3.5210771231
 H         -1.0646122885       -2.0711137820       -3.0063584453
 H         -0.9801610560       -3.4401674692       -3.7109332951
 O          1.3463777556       -0.4320842766       -3.9705813593
 H          1.3640681494       -0.1573841362       -4.8963877339
 H          0.6802446018       -1.1333655877       -3.9111007378
 O          4.4007022536       -4.9312285727       -3.3593571079
 H          3.4499928730       -4.9111512027       -3.5139981578
 H          4.7880744880       -4.2837235709       -3.9715557362
 O         -5.9820330351       -3.8034061883        4.6762181189
 H         -5.5646063709       -2.9205440436        4.6692256811
 H         -5.4701139515       -4.3553559905        4.0707234693
 O          4.2980576123       -0.4180140496       -0.9222310851
 H          3.8039638960       -1.0455036720       -1.4770151570
 H          4.9836372479       -0.0610095444       -1.5239328485
 O          1.6093598623        4.3794888963        1.0740910991
 H          1.7124838436        3.9428833642        0.1941655315
 H          1.3398944938        3.6681542808        1.6968805303
 O         -4.4096091744       -5.0076398539        2.6498956349
 H         -4.2197807925       -5.3230216678        1.7377328024
 H         -3.5649480867       -5.0911323306        3.1452750474
 O         -1.5216477799        5.1716776310       -3.6581989688
 H         -1.5217741872        5.8301546155       -2.9341801504
 H         -2.4335163752        4.9922762237       -3.9450433715
 O         -1.1739691203        3.3274886935       -1.7822740517
 H         -1.2204946717        3.8463946372       -2.6097279966
 H         -1.6825281425        3.8565271414       -1.1429458697
 O          3.0573292365        1.7270827091       -2.7683126446
 H          2.5623544667        0.9797075735       -3.1209542451
 H          2.3887418067        2.3309863873       -2.3796204455
 O          0.8115155274       -2.3227155743        3.2723189170
 H          1.0191197809       -1.3775319867        3.4398362388
 H          1.5960364692       -2.7000965751        2.8319159981
 O          3.7979948308        4.3394654555        2.7168546661
 H          4.4949840661        4.5630542518        2.0694317404
 H          2.9721064205        4.5716616299        2.2668993213
 O          2.2039334859       -5.6141444196       -0.5474691595
 H          2.0237641862       -5.9638283832        0.3322098913
 H          3.1228259627       -5.2988959253       -0.5437661400
 O          5.4952630600       -1.6494862933        0.9935911201
 H          6.2203201931       -1.0889224790        1.2743342752
 H          5.0367928110       -1.1812595458        0.2404662485
 O         -3.6604000940       -2.3886415125        2.4941544748
 H         -4.4294327892       -1.8281417635        2.3010274160
 H         -3.9890367462       -3.2989034483        2.5832503215
 O         -5.7338801109       -5.0644880314       -1.8395945500
 H         -5.4053887785       -4.3396446921       -2.3953822750
 H         -6.6442145343       -4.8516347212       -1.6144650805
 O         -9.8792603262       -2.9728530155        1.4370165443
 H         -9.3172119032       -3.0245925489        2.2352095808
 H        -10.7851578978       -2.9393380214        1.7443784561
 O          1.7571089047       -4.0189780885       -2.8966887633
 H          1.7677093081       -4.5355605580       -2.0808301031
 H          0.8987303400       -3.5485905237       -2.9391572122
 O          7.3685128945       -2.0428743210       -3.3697123777
 H          7.4955713108       -2.6753216255       -2.6488188139
 H          6.6102570942       -2.3664737739       -3.8961364006
 O          6.6689158303        2.6454560400        4.6154309970
 H          6.3360562908        1.9253284747        4.0466633835
 H          7.4298942819        2.9964593217        4.1427872046
 O         -0.5251361353        5.7344757478        4.7472446506
 H         -0.7509776977        6.1316389728        5.5876257712
 H          0.1862498131        5.0893298584        4.9304078766
 O         -7.4511754750       -0.1469259182        4.1874804397
 H         -7.9524157212        0.5516726930        3.7519556441
 H         -6.8925273383        0.2988362104        4.8553728389
 O         -8.0769467560       -2.7375030242        3.4556119943
 H         -7.9789404186       -1.8160468431        3.7521590223
 H         -7.5034929454       -3.2542079712        4.0625268942
 O         -3.1855607679        1.5182027849       -1.5117997487
 H         -2.4236848059        2.1039802654       -1.6466359232
 H         -3.9725317770        1.9863574676       -1.8180318981
 O          6.5748642068        1.3230460301        0.4438690187
 H          7.0576289972        2.1745908103        0.4928609405
 H          6.3045104405        1.1183900688        1.3718107529
 O         -1.6772218882        2.8875964535       -6.1316391895
 H         -0.9084675734        3.4612964040       -6.1113787133
 H         -1.6018901807        2.2844599943       -5.3631793583
 O         -2.8296187216       -2.7696192290       -5.3636378742
 H         -2.5401259794       -3.6606921990       -5.5666951943
 H         -3.3875408924       -2.8548097905       -4.5462450864
 O          1.2917862378        3.7699958157        5.2151198267
 H          1.2118345252        3.3771045064        4.3144679341
 H          2.2247765581        3.6998336737        5.4536376676
 O         -2.2882297578        4.6719554086        2.9982962109
 H         -1.7360137999        5.1440997012        3.6501189653
 H         -2.1754644766        3.7149117176        3.2110397353
 O          9.7833558060       -1.3163811352        1.1677537917
 H          9.4794213371       -2.2056659768        1.3920056916
 H          9.1813900155       -1.0228207130        0.4470919880
 O          4.5669761593       -4.1164638965       -0.8368714969
 H          3.9212734458       -3.3878119569       -0.7796243225
 H          4.5826368788       -4.4224012390       -1.7734439684
 O         -4.7859166780       -1.3508801795        4.8479185215
 H         -4.3865105337       -0.7325555573        4.1966099346
 H         -5.1523996307       -0.7823142527        5.5317037665
 O         -6.9777673949       -1.9624202078       -2.0759333377
 H         -7.5133483938       -2.6656643300       -1.6549112385
 H         -7.4356985699       -1.1180505877       -1.9247837916
 O         -8.3911685599        0.4070946742       -1.8712484718
 H         -8.2495276782        1.2169416086       -1.3531913443
 H         -8.1524418756        0.6581992024       -2.7764865164
 O          3.0497186754       -1.8423263584        6.3102131648
 H          2.4191530202       -2.5688073626        6.1502104022
 H          3.8444898269       -2.1145476265        5.8322407640
 O         -0.1582286673       -2.9904045335       -0.7506751415
 H         -0.2230773620       -3.9303787985       -1.0122766616
 H         -0.4747694124       -2.9427059309        0.1759905409
 O          9.0138869266        3.2484461782       -1.8246434158
 H          9.5721211616        3.7857354140       -2.3866651390
 H          9.1499576740        2.3133021669       -2.0959815263
 O         -0.6313100540        2.0790064296        6.1484357231
 H          0.0257963771        2.7788849218        5.9814798035
 H         -0.1088692591        1.3019513403        6.4009008772
 O          7.9903194847       -0.5829780582       -0.6671196988
 H          7.4262478387        0.1362526821       -0.3020023137
 H          8.4457934660       -0.1900166937       -1.4302034041
 O         -8.3258761889       -0.8768933513        0.6323440516
 H         -8.5089265895       -0.5424089616       -0.2543854683
 H         -8.9700165842       -1.5782001690        0.8263116884
 O          0.2416489654       -5.9435084165        4.7247213265
 H          0.6271574521       -5.0895711294        5.0633707697
 H          0.3566168174       -6.5919401093        5.4181030211
 O         -5.6641714265        1.2601814757        5.6581994530
 H         -5.6435020590        1.8561552481        4.8928593317
 H         -4.7303081009        1.1338323869        5.9110556203
 O         -0.9658235183       -2.2471215754        6.5562706918
 H         -1.2848795677       -1.8994838692        5.6880315846
 H         -1.7404862776       -2.6706047718        6.9377875848
 O         -3.7801400660        4.0741934100       -4.7487354181
 H         -3.2003731156        3.8616677245       -5.4952321125
 H         -4.1156629269        3.2075019408       -4.4623169879
 O         -6.4478361809        4.9131904892        0.0940499019
 H         -5.8157936011        4.9355665390        0.8313033157
 H         -6.0179370307        5.2779508405       -0.6858528538
 O         -1.0737857203        6.6215630241       -1.4264674457
 H         -1.0681477723        6.0135223732       -0.6611843447
 H         -0.2263793521        7.0706584021       -1.3791582780
 O         -0.9717884948        4.9487579132        0.7104213019
 H         -1.4831359442        4.9612410167        1.5498086456
 H         -0.0276120717        4.9305241082        0.9529049911
 O          5.7904808903        0.7424531140        2.8625684423
 H          6.0142864532       -0.1280703138        3.2207623037
 H          4.8126481305        0.8290533045        2.8548664251
 O         -3.9172170008        2.6579120066        1.0438436639
 H         -4.4742763085        2.0088100443        0.5815110834
 H         -3.8133345308        3.4137996068        0.4456636444
 O          7.1624721154       -3.1751193513       -0.8014895123
 H          6.2099395407       -3.3893385822       -0.7752937065
 H          7.2589149166       -2.2057418000       -0.7425619873
 O         -8.2063223082        1.4913044380        2.0334557026
 H         -8.2588729195        0.6167770938        1.6047249897
 H         -8.3079469923        2.1228887045        1.3077252340
 O         -1.4919445512        0.9522316279       -4.1835620906
 H         -1.1573030411        0.2283564495       -4.7662528439
 H         -0.7005221188        1.4429000926       -3.8687572578
 O         -1.3205889665        2.2285752536        0.9463190120
 H         -2.2970775967        2.2650806259        1.0630619500
 H         -1.0752361554        3.1386322117        0.7257429543
 O          1.6904754194        6.8402441399       -0.3309044133
 H          1.7120429406        6.0543824699        0.2379638874
 H          2.3320049598        7.4537369197        0.0273869288
 O          0.8445907736       -0.2070774953        6.5022853918
 H          1.7021281668       -0.6549662844        6.5943766320
 H          0.1778923313       -0.8845103011        6.7021564374
 O          2.3909099293       -2.5561545549       -0.1759683243
 H          1.4882281740       -2.7349910406       -0.5178406684
 H          2.4646823377       -3.0850297680        0.6495705706
 O          6.3563087173        3.0313811340       -2.6776421050
 H          7.2489713470        3.2341399681       -2.3644285241
 H          6.2650570114        2.0651416092       -2.5915171037
 O          2.4735337260        3.4310777270       -6.5546315035
 H          3.2798872394        3.3669192587       -6.0134370695
 H          1.9276838874        4.1028404308       -6.1214310196
 O         -4.9668164402       -2.1330091625       -0.2054985300
 H         -5.5610810042       -1.9749672606       -0.9623008501
 H         -5.4717372069       -2.6776645356        0.4228094760
 O          2.3631054060        5.5936579866       -2.6794778873
 H          2.1058858524        6.2229954109       -1.9859963470
 H          3.3441711820        5.5008585713       -2.5961039783
 O          6.1034152383        0.2929773403       -2.7180866587
 H          5.7301018747        0.3622274580       -3.6224259610
 H          6.6865542982       -0.4884996424       -2.7678348426
 O         -3.1035182917       -0.2868689168        0.6044100992
 H         -3.1173642273        0.3851160596       -0.1004080368
 H         -3.7552970377       -0.9609559691        0.3611059523
 O          5.1240296966       -2.6632758792       -4.7015750221
 H          4.8922858142       -2.2942688660       -5.5572954430
 H          4.4826732170       -2.2674644728       -4.0597048553
 O          7.8292172121        3.6582535502        0.6409196390
 H          8.4085801258        3.6342038347       -0.1350003678
 H          8.3573641245        3.4650921283        1.4341177462
 O         -3.4210557873       -3.3773665518        6.0865002273
 H         -3.7599278078       -2.5548578729        5.6779048833
 H         -4.1988051798       -3.9084519054        6.2722144618
 O         -4.1784822681        1.3198397603       -4.4343786233
 H         -3.2399867038        1.2603935352       -4.1932299411
 H         -4.2886195429        0.6947789967       -5.1753953795
 O         -3.0502343569        0.6122165306        6.0929006741
 H         -2.3384023374        1.1954178383        6.3726635446
 H         -2.6602354061       -0.0195819391        5.4612850804
 O         -8.1522887750       -3.9076348453       -0.6623638296
 H         -7.5306418972       -3.9010697980        0.0963699052
 H         -9.0188409465       -3.7936650694       -0.2597864092
 O          2.5462690511       -3.9498822028        2.0504925905
 H          2.0693696949       -4.8022945218        2.1232621059
 H          3.5016638965       -4.1142017746        2.1581948019
 O          3.7949257332        0.5945603977        4.8194812307
 H          3.8679646504        1.5428645313        5.0439363339
 H          3.7722449864        0.0909131229        5.6360033506
 O         -5.1261703369        5.1779067088       -2.5405434163
 H         -5.4018181530        4.2322624391       -2.5797193828
 H         -4.8035353523        5.3664271945       -3.4262147603
 O         -6.6613609129       -1.5227793471       -4.7068400121
 H         -7.2623357781       -2.1430309779       -5.1192846238
 H         -6.6475458080       -1.7493120119       -3.7467367341
 O          1.4429362427       -2.7743425508       -5.8019473742
 H          1.3918389069       -3.3242245213       -5.0158764347
 H          0.6217933179       -2.2577550335       -5.8362203577
 O          7.1708341619       -1.5563992879        3.4214417718
 H          7.4878962541       -2.2438485059        2.8019095908
 H          7.9185589717       -0.9531029704        3.5622666811
 O         -2.1559921543       -4.6732968926        3.9850943439
 H         -1.3683570396       -5.1888497724        4.2086085173
 H         -2.4479788007       -4.2147734583        4.7912133888
 O         -3.8696628374       -5.5812265562        0.1068745833
 H         -4.6346514988       -5.6855824472       -0.4822852414
 H         -3.3844156504       -4.8344535699       -0.3026374038
 O          4.9935004246       -2.7579547978        4.5068607960
 H          5.8226510463       -2.2949822914        4.3003180487
 H          4.9972793780       -3.5480629132        3.9588650358
 O         -5.7978393204        2.3496500505        3.1268341018
 H         -6.6370558284        2.1132669898        2.6972108889
 H         -5.4643251630        3.1627188494        2.7112931552
 O         -1.1815218881       -3.1027465211        1.6694757929
 H         -2.0522133532       -2.7685703761        1.9458800356
 H         -0.5340227229       -2.8217487353        2.3496809536
 O          8.1808389777        0.0469106217       -4.9465533204
 H          8.0505487455       -0.8614524168       -4.6342711461
 H          7.2971432722        0.3506326877       -5.2100189717
 O          3.3210543711       -1.8788145774       -2.9474929512
 H          2.8185093666       -2.7140688296       -2.8404504285
 H          2.6945105069       -1.2689635456       -3.3852364247
 O         -5.7008876810        2.5958164312       -2.4782104185
 H         -6.0422892569        2.1068432157       -3.2414489782
 H         -6.4162942902        2.5908238446       -1.8165591580
 O         -7.5155213395        2.5524490153       -0.4141360694
 H         -7.2284681307        3.4641447475       -0.1849562274
 H         -6.7933972333        1.9462495962       -0.1204707578
 O         -4.3529175701       -3.0141788371       -3.2323920468
 H         -3.6875783754       -3.1762379643       -2.5261530788
 H         -4.7021614283       -2.1244002585       -3.0345935196
 O          4.0808482775        3.2725372060        5.1973882613
 H          3.9887252118        3.7381077165        4.3470995025
 H          5.0432961552        3.1758034728        5.2938280991
 O          9.3653671975        0.1128842685        3.2893148691
 H         10.0864467370       -0.0786598894        3.8892340440
 H          9.5729169275       -0.3744166335        2.4380810162
 O         -5.6029468829        0.8129602892       -0.0494528484
 H         -5.3825207877        0.3354405870       -0.8734549615
 H         -5.6615601532        0.1636628513        0.6766068987
 O          4.4114251131        2.9465927918       -4.6994304544
 H          5.1808298188        3.3107977670       -4.2449816465
 H          3.8704225382        2.5393504576       -3.9821196352
 O          9.3112880604        0.7311812331       -2.6948408277
 H         10.1882866850        0.3643060864       -2.8098288919
 H          8.8355831168        0.5711180385       -3.5588239761
 O          1.1633752945       -6.2216814451        2.1529776247
 H          0.9611753935       -6.2518646743        3.1046773123
 H          0.2848038790       -6.1472560304        1.7424545107
 O          5.2228888625       -4.1860206143        1.8891223890
 H          5.3834916690       -3.2472477607        1.6599673026
 H          5.1807318211       -4.6152830250        1.0264142553
 O          5.2772695371        4.7271458394        0.5121485047
 H          4.8671269382        3.8998463442        0.1647971467
 H          6.2189677624        4.5216203295        0.6051444852
 O         -4.9049220855        4.9128826962        2.3986977228
 H         -3.9426459152        4.7999186142        2.5564099635
 H         -5.2295501441        5.5067859447        3.0750950324
 O         -0.4210794310       -5.6091493078       -1.3710651453
 H         -0.8198675935       -5.7668388437       -0.4853949724
 H          0.4670523912       -5.9805343072       -1.3255942565
 O         -6.5183197564       -3.6430008141        1.4412500844
 H         -7.0779763635       -3.2560484071        2.1473543386
 H         -5.9621495618       -4.3098946750        1.8615386980
