  282
       -473.35671853
 H         -0.8894523956       -0.0139584930       -1.5451200204
 C         -0.4883826885        0.4670953089       -0.6552921527
 H          0.5478879681        0.7410015153       -0.8318725495
 C         -0.5957885402       -0.5073243609        0.4986915424
 H         -0.3096400474       -1.4993085791        0.1675745247
 H         -1.6274376256       -0.5174894714        0.8336932092
 O         -1.2694056035        1.6199750632       -0.3638267400
 H         -0.7210269060        2.4057596124       -0.4955346173
 N          0.2588100696       -0.0904148571        1.6196952645
 H          0.1628535420       -0.7593434548        2.4182254385
 H         -0.0085092770        0.8833909362        1.9331269972
 H          1.2439801791       -0.1187295599        1.3141197564
 O          4.8064113072       -2.0394344192       -0.3780727497
 H          4.2700294618       -2.7421224168       -0.8230191903
 H          4.1414216983       -1.5710809807        0.1613106320
 O          4.8031118206        1.8788350818       -1.1979101893
 H          5.2498412214        1.9925809495       -2.0590959829
 H          5.3467749190        1.2675200972       -0.6709601806
 O          1.2497718640       -2.0876927061       -1.7714581212
 H          1.0582638672       -1.5461688976       -2.5500019125
 H          0.4322956326       -2.5832268234       -1.5850403284
 O         -0.0850154599        2.1007183775       -3.4171832437
 H          0.0327119822        1.1301529660       -3.4804002171
 H          0.2241975969        2.3789772971       -2.5371813296
 O         -3.2294400220       -2.2441284689       -0.3243940816
 H         -2.6447826314       -2.4136961702        0.4417525347
 H         -3.8144853443       -1.4983001906       -0.0941895785
 O         -1.6975036117        2.5374477977        4.8353431136
 H         -1.3951249465        3.4610753258        4.7915690274
 H         -2.6606537571        2.5665137770        4.6774750639
 O          0.7347691853       -3.3331149768        0.8937857423
 H          1.2459011833       -3.6543109979        1.6623269312
 H          0.7343964946       -4.0775648042        0.2677600920
 O          2.1581774790       -2.6468669296       -4.9201286667
 H          2.4682357669       -1.8380679837       -4.4351185128
 H          2.1910818917       -2.4352312564       -5.8525360092
 O          1.2628528054       -6.0653488580       -3.0514157180
 H          0.7094891240       -5.3535194251       -3.4365625298
 H          0.8381231366       -6.8924752383       -3.2798798048
 O         -2.1304025689        3.7844961985        0.9896398667
 H         -2.5291121041        4.3982661389        1.6377158826
 H         -2.3425033518        4.1108267431        0.0957295295
 O         -4.2507944663        2.7236735369        3.9505841171
 H         -5.0798107741        2.3118772345        4.2152052578
 H         -4.0215178029        2.2960334168        3.0890748615
 O          3.7062010486        6.2248027730       -1.5646260965
 H          3.5224574357        6.3145885021       -0.6143316042
 H          4.6384511350        5.9643770067       -1.6465651416
 O         -2.2907751175       -2.8159378111       -4.9590506666
 H         -2.4727887944       -2.2634878969       -4.1645608586
 H         -1.9677954139       -2.1873347137       -5.6228971312
 O         -1.7830514911       -2.8495670597        1.8391748987
 H         -0.9146769982       -3.1422986516        1.4989923398
 H         -2.2751472853       -3.6408153826        2.1349714652
 O         -6.9623747746        2.5194497859        1.5435204611
 H         -7.7647787074        2.0762705475        1.2326704878
 H         -6.6615996572        2.0100832791        2.3196964082
 O         -5.3313902660        4.8803783788        1.0589625981
 H         -4.9616483104        4.0775718206        0.6318836062
 H         -6.1541260282        4.5746840158        1.4530517365
 O          4.0524131792        4.0911242592        4.4531225246
 H          4.0917040611        4.7889363554        5.1056810056
 H          3.0990910224        3.8559018037        4.3303531548
 O          2.4855052787        0.6128329594       -1.3844334450
 H          2.5402588265        0.1941349480       -2.2609001396
 H          3.3052176826        1.1416459080       -1.2891208142
 O          4.4746442482        1.3505581989        4.5524442571
 H          4.4970292703        2.3158300127        4.6148349309
 H          4.2209488674        1.1486784094        3.6230499742
 O          2.4930571236       -1.1516797963        0.5243825799
 H          2.4684049560       -0.5255353952       -0.2529883110
 H          1.9181669891       -1.8999158118        0.2889510525
 O         -0.0055536341       -0.5987408114       -3.7529761265
 H         -0.1324343117       -0.6506387598       -4.7119173021
 H         -0.8639639255       -0.8894602248       -3.3781236276
 O         -0.4391400855        2.2952194290        2.4546657742
 H         -0.9295365615        2.2967295177        3.2976764687
 H         -0.9085559904        2.8935251729        1.8482930140
 O         -3.4079396716        5.1336294629        2.9493171165
 H         -3.7546701084        4.3816845583        3.4622858854
 H         -4.1302261144        5.3630438407        2.3387209110
 O          4.4854776961        3.9228364170        1.7797014899
 H          3.6790078132        3.4369752919        1.4923091440
 H          4.4165058050        3.9981408429        2.7485454764
 O          7.8265194997        2.9089390170       -0.7794859872
 H          7.7074983366        2.1037900969       -1.3364873766
 H          8.6797793406        3.2738318281       -1.0130526207
 O          3.7142631586        0.7651513974        2.0398779927
 H          3.1057835546        1.4409407684        1.6878041204
 H          4.4149290934        0.6524181828        1.3921091890
 O          6.9153809847        0.4462977503        3.8020658827
 H          7.1027599518        1.1626251383        3.1816485743
 H          6.1292724355        0.7459141616        4.2995936270
 O         -1.0911601487       -0.6866863272       -6.2620566354
 H         -1.8072113981       -0.0704452836       -5.9487527454
 H         -0.9314690019       -0.4519207413       -7.1751958497
 O         -3.9002266612       -3.3546748355        4.6089858055
 H         -3.0094784666       -3.1845587107        4.9582680538
 H         -3.7988915836       -4.0305527346        3.9223668857
 O         -0.7544761935        4.9385112396        3.9164625914
 H         -1.6354219017        5.2680505245        3.6961585297
 H         -0.2264122978        5.0867854798        3.1060147689
 O         -3.3702536748        1.5566885799        1.7497757817
 H         -2.7311693839        0.9601767112        2.1726867836
 H         -2.8747625188        2.2707132761        1.2909911294
 O         -4.7532475955       -1.2399193312        3.3067388437
 H         -3.8591043152       -0.8304850016        3.2674944841
 H         -4.5890801446       -2.0365764076        3.8676162375
 O         -7.1947966550       -3.0581780284       -0.4508703500
 H         -7.9952900368       -3.5762710638       -0.5349945655
 H         -7.1234813374       -2.8073310877        0.5062763018
 O         -0.9857005425       -3.5027958446       -1.5997356210
 H         -0.7553954474       -3.7554513232       -2.5089804155
 H         -1.5439072216       -4.2273343674       -1.2633037472
 O         -5.1164549989       -2.4643448015       -2.4168347149
 H         -4.6679071843       -3.2813153069       -2.7205563712
 H         -5.8713535012       -2.7371550840       -1.8900927354
 O         -0.2614305454        5.7638476373       -0.9206460654
 H          0.0543635411        6.4149775278       -1.5471573395
 H         -1.1687200325        5.4956083718       -1.1939625956
 O          6.1752190955       -4.1500409672        1.9619715053
 H          6.4528998645       -4.5973061637        2.7609931570
 H          6.0098755978       -3.2101377769        2.2105079165
 O          2.0751491290        3.2295937108       -4.6439329908
 H          1.2243627576        2.8353603012       -4.3736733426
 H          2.4760893697        3.5553794754       -3.8152612347
 O         -1.0412285891       -6.0985228459        1.3425391158
 H         -0.2448532238       -6.1252191594        0.7890615754
 H         -0.7834983588       -5.6162063224        2.1431278401
 O          5.4996409548       -0.8837626732       -2.6393990496
 H          5.2533201803       -1.1423248090       -1.7199750248
 H          5.8150921224       -1.7233956586       -3.0366655786
 O          1.8641672532        0.5243192052        4.4914122147
 H          2.6659577111        0.8218292860        4.9498099832
 H          2.2038302596       -0.1642730455        3.8969425808
 O         -0.3076296828       -4.5749624213        3.5972654816
 H         -0.6147377248       -4.4446031413        4.4999001020
 H          0.6548690881       -4.6998571546        3.6098498106
 O          2.3090470021       -4.2562617755        2.9058918704
 H          2.7433004718       -3.4022723076        3.0956547735
 H          2.8788565095       -4.7094349265        2.2477184796
 O          2.1403667195        2.7354431492        1.2403062515
 H          1.6243676833        3.0753429761        1.9907540380
 H          1.6064335298        2.9057974121        0.4400839997
 O          5.7229033944       -1.5822857187        2.5768331175
 H          5.7146468417       -1.1262750427        1.7146586374
 H          6.2417449737       -0.9700588613        3.1488452565
 O          3.0791150335       -1.6807547033        3.1277744906
 H          4.0517227067       -1.5995404085        3.1772695994
 H          2.8840761809       -1.3900442128        2.2159761305
 O          3.0250891243        3.7835615366       -2.1755984231
 H          3.2278685369        4.7410273419       -2.0124575140
 H          3.7369797399        3.2812011522       -1.7552989680
 O         -2.2072678161       -0.4983623976        3.1275186575
 H         -1.6923397745       -0.3676793440        3.9500164927
 H         -1.9798822542       -1.3860521237        2.7920108904
 O         -6.3803677620        0.9072410064        3.6875447342
 H         -7.2642165699        0.5165989889        3.6791020714
 H         -5.7662064394        0.1495764938        3.6265027765
 O         -4.9525360981        5.8740946602       -1.5184038093
 H         -5.2262091161        5.7521603131       -0.5952893896
 H         -5.4354801796        5.2213876460       -2.0440512581
 O         -2.7200605733        2.7226765169       -3.4225085538
 H         -1.7536429689        2.5832350207       -3.4954193483
 H         -3.0400747004        2.0186646724       -2.8028395523
 O         -8.7609519752       -0.3576703643        2.9155916003
 H         -8.9087277311        0.1049138704        2.0664982865
 H         -9.6170041476       -0.4761602172        3.3271622570
 O          3.2016949171       -3.7922665848       -1.3957061022
 H          3.4267066607       -4.1770957259       -2.2669386513
 H          2.4387867487       -3.1860871880       -1.5612283186
 O         -2.4091872568       -1.3172640385       -2.7581068880
 H         -2.4828889931       -1.9170647421       -1.9900901642
 H         -3.0164834440       -0.5876422922       -2.5526446344
 O          5.9755767026        4.7039192365       -1.9075995784
 H          5.8355069665        4.1736496872       -2.7011394287
 H          6.5457652548        4.1624126674       -1.3427405217
 O          0.7631460437        3.2837439810       -1.0377202105
 H          1.6409874313        3.4105159662       -1.4847422480
 H          0.4015042869        4.1882754198       -0.9554577717
 O         -5.0538454233        2.5851458082       -0.3292469683
 H         -5.8321071532        2.4169421183        0.2356564334
 H         -5.3574542963        2.9778555226       -1.1746421590
 O         -5.5556339286        3.4532914272       -2.8040435249
 H         -4.7260685563        3.3788018669       -3.2885610140
 H         -6.0798081862        2.6539761427       -3.0491296691
 O         -3.0508846738        0.8331489692       -5.4303994448
 H         -2.9478972475        1.6067338518       -4.8509349508
 H         -3.7537048392        0.2891717909       -5.0348839960
 O          3.5953432022       -4.7167000930       -3.8498884445
 H          3.1320527304       -4.0017154306       -4.3277941196
 H          2.9391788841       -5.4192083452       -3.7317054683
 O          1.1555240848       -5.7430526551       -0.3070138913
 H          1.2211005655       -5.8380900176       -1.2743564240
 H          2.0337939814       -5.9071819063        0.0507924754
 O          6.1076780954        0.2167148913        0.5251315244
 H          6.4227730381        1.0001952723        1.0397198486
 H          6.9097636463       -0.2222694252        0.1916685931
 O         -4.8517977886       -0.3461881387        0.7056594637
 H         -4.3842004106        0.4913520867        0.9167580207
 H         -4.9968504343       -0.7700766086        1.5657157170
 O         -3.4939554446        0.9178525212       -1.6679418483
 H         -4.2336989177        1.3430743410       -1.1954820812
 H         -2.7239492198        1.1218714041       -1.1035625162
 O         -6.7072654642        1.1050950734       -3.1955488345
 H         -6.1125003637        0.5350610481       -3.7122602627
 H         -6.8321391315        0.6416969151       -2.3513038290
 O         -1.3757199073       -2.8052233072        5.6908465862
 H         -1.0525089787       -1.9195733148        5.4509243252
 H         -1.5413109859       -2.7795612226        6.6336006848
 O          3.3134091214        6.2292727406        1.1788842541
 H          3.8453032945        5.4144066623        1.3517394338
 H          3.7430682809        6.9515706171        1.6360120479
 O         -0.0895972315       -4.0169060741       -4.1207379277
 H          0.6473098919       -3.4385530142       -4.3831660528
 H         -0.8999017066       -3.6501231364       -4.5458736352
 O          3.8731732268        1.5529807621       -5.3870700062
 H          3.1572505890        2.2165997291       -5.1325622872
 H          4.0441499405        1.6939825321       -6.3176059422
 O         -2.5941033118        4.6859237152       -1.5159310181
 H         -3.4261033571        5.2161622310       -1.5494086599
 H         -2.6465214604        4.0411840392       -2.2489187788
 O         -3.8222458948       -4.6162019816       -3.3621170917
 H         -3.2613223153       -4.2270673745       -4.0437895686
 H         -3.2492041497       -5.0546406450       -2.7221035313
 O         -5.0520686745       -0.7342110004       -4.3938497625
 H         -5.0158970767       -1.3406988071       -3.6128631010
 H         -5.3998785457       -1.2540595442       -5.1185511145
 O          0.7216699097        5.2155023090        1.6491560523
 H          0.2295614932        5.4599577126        0.8543248338
 H          1.5913209637        5.6296045402        1.5535715934
 O          5.8090076608        2.4021638156       -3.6496558684
 H          5.1594795351        2.0784660853       -4.3035145683
 H          6.6088872215        1.8792847479       -3.7447742358
 O          6.1195043808       -3.3883245216       -3.2865182306
 H          5.4035849126       -3.9973636569       -3.5055745229
 H          6.5466503215       -3.7072965834       -2.4811618788
 O         -4.7072552702       -4.3606749906        0.0792619193
 H         -5.6282408028       -4.1588766564       -0.1166782347
 H         -4.1989853239       -3.5383414191       -0.1628042997
 O          3.8057456349       -5.1455758598        0.8880052026
 H          4.6931084438       -4.8792016872        1.1803331960
 H          3.6222465320       -4.6374091048        0.0759183794
 O          1.6292455468        3.2542103060        3.9676421192
 H          1.4918833348        2.3029359388        4.1116740732
 H          0.7941737630        3.7120390250        4.1122442739
 O         -2.5347325672       -5.6155650579       -0.9612906702
 H         -2.0558498543       -5.9492886936       -0.1870276270
 H         -3.4030710246       -5.3246915817       -0.6321349922
 O          0.3227868079       -1.8885993447        3.6039123723
 H          1.2683817794       -2.0133049757        3.7281229150
 H         -0.0699902323       -2.7670382984        3.4668680740
 O          3.1424433971       -0.4946082082       -3.7760090531
 H          4.0288955182       -0.6775388652       -3.3828223186
 H          3.3045181860        0.2118654234       -4.4243750104
 O          6.7834323179        2.4554234182        1.7092619931
 H          7.2805071257        2.7658532983        0.9343174813
 H          5.9705727978        3.0020645206        1.7233601869
 O          7.6570216935        0.6666245950       -2.2439246678
 H          6.8401105308        0.1529160820       -2.4292588086
 H          8.1948451004        0.0691504234       -1.7081901152
 O          7.0721326900       -3.4182847093       -0.5453794691
 H          7.0710848255       -3.9603662466        0.2544090303
 H          6.2501526420       -2.8912909116       -0.4631401008
 O         -8.9310234506        0.8686091819        0.5112546862
 H         -9.6090375094        1.1477583841       -0.1039134207
 H         -8.2233914858        0.4203952294       -0.0268134920
 O         -0.7475079592       -0.0102863539        5.3313171370
 H          0.1874197828        0.0829167797        5.0775065461
 H         -1.0850790928        0.8936207685        5.4248611271
 O         -7.0555331188       -2.3684686011        2.0812106589
 H         -6.2240453357       -2.1740169261        2.5323077138
 H         -7.6972129373       -1.7192415215        2.4119306467
 O         -7.0022636304       -0.2969453833       -0.8204505239
 H         -7.1509054619       -1.2503032228       -0.9053649809
 H         -6.1701870341       -0.2282697063       -0.2941963796
 O          8.3873706910       -1.1207545787       -0.2453389128
 H          8.0220851082       -2.0192206494       -0.4282500345
 H          9.1048713949       -1.2316480743        0.3781950352
 O         -3.4263656376       -4.9194949505        2.3671284055
 H         -2.8834920167       -5.6824041640        2.1440625774
 H         -4.0262200213       -4.7693523123        1.6065330352
