  99
       -167.96697358
 O         -2.9416153029       -2.0758319004        2.4866002437
 H         -2.3078317371       -2.8037076114        2.5705128051
 H         -2.4416464055       -1.2605083133        2.7036582588
 O         -0.7676165235       -3.7969544230        2.1202404426
 H         -1.1116200038       -3.9371926852        1.2020081574
 H          0.0617454678       -4.3073599830        2.1254872447
 O          0.4924781507       -1.5609604353        2.9228307797
 H          0.0096250940       -2.3740130453        2.6474437720
 H          1.4008537361       -1.8371784737        3.0904742823
 O         -4.3322809241        1.2910078683       -1.2553898056
 H         -4.8748013508        0.5472878796       -0.9251485142
 H         -4.7736174508        1.6520065773       -2.0243313771
 O         -4.0274303053        1.3630834429        3.2506937346
 H         -3.1525169756        0.9270257254        3.2617233734
 H         -4.1170048021        1.8086646350        4.0935863523
 O          0.5827882336       -2.7513817690       -1.3376073574
 H          1.3741445229       -3.2946897350       -1.2312335849
 H          0.7144354648       -1.9908770711       -0.6999474713
 O         -5.4167122941       -0.8606175902        2.3845337998
 H         -4.6885731546       -1.4877850359        2.5240448193
 H         -5.0776762104       -0.0108085469        2.7129090628
 O          5.6885394092       -1.1697392495       -1.0728522375
 H          5.6682738967       -0.1967956611       -1.0376850261
 H          5.0418693063       -1.4247317155       -1.7502974458
 O          5.0651624237       -2.6316988993        0.9985362173
 H          5.8328497657       -3.1870685512        1.1409287420
 H          5.3210033800       -2.0017042640        0.2691834643
 O         -1.1198531418        2.2284334572       -3.0581850207
 H         -1.2200625483        1.3685692003       -3.4719716296
 H         -0.6521503502        2.0548699937       -2.2168674728
 O          3.6933549505       -1.9560711988       -2.8670728113
 H          3.0393436959       -1.2366486555       -3.0073139887
 H          3.8299631840       -2.3759388117       -3.7168080766
 O          0.2796579672        2.2801848272       -0.7810506518
 H          0.2858508923        3.2618569522       -0.8698932665
 H          1.1246121300        2.0831352245       -0.3365367284
 O         -1.0973896815        2.2644760860        1.4898668423
 H         -0.7238993184        2.0589254493        0.6046804219
 H         -2.0020680540        2.5857434548        1.3104514084
 O         -1.7512085270        0.2974639272       -0.7475596397
 H         -2.4971984398        0.8367098074       -1.0400982664
 H         -2.1615461870       -0.5482179013       -0.4692319403
 O         -5.7549374176       -0.7588028997       -0.2033600795
 H         -5.6800792664       -0.7642318335        0.7933331683
 H         -6.6168330070       -1.1202847800       -0.4088556344
 O         -1.5701935143       -4.0691611214       -0.3975450079
 H         -0.7801608256       -3.6811493246       -0.8250183375
 H         -2.2597287365       -3.3949192382       -0.4876463744
 O         -1.5785116209        0.1885717560        3.0615392146
 H         -0.7653838250       -0.3192472601        3.2165827623
 H         -1.3194831900        0.9059904620        2.4349530950
 O          1.9794937129        0.0696184082       -3.3771904257
 H          1.0439153088       -0.1913448836       -3.1097775451
 H          1.9146644874        0.3695908756       -4.2849827547
 O         -0.4183834759       -0.7139875940       -2.8287039872
 H         -0.8632267394       -0.2923396925       -2.0549864837
 H         -0.1765973238       -1.5978059573       -2.5011989582
 O          3.0700063290        2.2483112667       -2.1352666413
 H          2.5114910948        2.9619627942       -2.5194789453
 H          2.6981778420        1.4323143840       -2.5177830478
 O          1.8130705856       -4.6342595059        1.7512268538
 H          2.2784843006       -3.9227479606        2.2164060743
 H          2.0692262169       -4.5586738762        0.8253126237
 O          3.2041672019       -2.5204208372        3.0042136373
 H          3.8850473601       -2.4491845732        2.3095298135
 H          3.6605869117       -2.7130593180        3.8239372591
 O          3.1500339783       -3.7282176354       -0.7458703832
 H          3.3717000643       -3.1963364458       -1.5258438998
 H          3.7887180195       -3.4506011612       -0.0701253590
 O          5.5037501814        1.5603026534       -1.1887527052
 H          6.1994268201        2.1521802002       -1.4737658168
 H          4.6825873216        1.8676389564       -1.6178611667
 O          0.2735639759        4.9553470049       -0.8400800545
 H         -0.6973036295        5.0027340407       -0.9230179633
 H          0.4865007777        4.9533647563        0.1156803087
 O          0.8780207521        4.1797666969        1.6790925415
 H          0.1346045310        3.5604173582        1.8017986590
 H          1.6473527332        3.6227796079        1.5125957609
 O         -3.6704229746        2.8390180544        0.9016882853
 H         -3.9649472150        2.2625376289        0.1747794431
 H         -3.9831322767        2.4202810487        1.7191517600
 O          1.2386231883        3.8840015694       -3.2230659762
 H          1.0197661306        4.5110531816       -2.5175619235
 H          0.4195105368        3.3880366845       -3.3780256888
 O         -3.2018851311       -1.8682555690       -0.1544210087
 H         -4.1182970122       -1.6171795237       -0.3337439512
 H         -3.1338566055       -1.9747805335        0.8228145023
 O         -2.3238942927        4.2980847862       -1.2731348191
 H         -2.1477238782        3.5963732557       -1.9134092024
 H         -2.8007445464        3.9070699792       -0.5323151220
 O          0.7798488789       -0.6424265036        0.3830552286
 H         -0.0081861427       -0.1385977795        0.1373734337
 H          0.6616052654       -0.9427434133        1.3131389686
 O          2.4429366359        1.5265440232        0.7365969558
 H          2.0424934380        0.6432724130        0.6152671187
 H          3.0790199506        1.6577916062        0.0232036046
 O          4.0197313404        0.2235111764        2.8267389943
 H          3.3903195418        0.7980841971        2.3739725057
 H          4.6147131270       -0.1061738631        2.1503916661
