  189
       -320.74875842
 O          3.9079348663        6.0804036768        0.2358135683
 H          4.4007887012        5.3639355903        0.6729376186
 H          2.9779968046        5.9496453318        0.4548296943
 O          6.7368642934        0.8409985674        0.1110775747
 H          6.3964830814        1.5836859223       -0.4063477717
 H          6.3867157301        0.9292039076        1.0187757272
 O          0.3914372164        1.9004554367        4.8777899815
 H         -0.5154981667        1.5685785493        4.9155415616
 H          0.8935863341        1.1957684174        4.4267176620
 O         -3.8808620080        1.5613124954        2.3948796989
 H         -3.6963081826        0.7487754140        1.8677779949
 H         -4.6131367964        2.0249993326        1.9404810354
 O          0.2164711969       -2.7464506628       -0.7299897574
 H         -0.5601209210       -3.2286692165       -0.3788387637
 H          0.5436169723       -2.2028164327        0.0118718727
 O         -1.3546927896       -1.5623722033        3.0317274889
 H         -2.0977540107       -1.3486114250        2.4134829139
 H         -1.3975676806       -0.8566631252        3.6942224563
 O         -6.0014809798        2.8319856807        1.2275934293
 H         -6.1944692476        2.7760543901        0.2772835478
 H         -6.6866242272        2.3110721489        1.6630874358
 O          5.3627660645        3.8492953427        0.9447415089
 H          6.2072422748        3.9001698619        0.4952962522
 H          4.8424500332        3.1685223044        0.4607929280
 O          0.3398809850        3.7772838985        2.9363426215
 H          0.3513597800        3.2999292528        3.7909664828
 H         -0.4616570458        3.4468976724        2.4739202033
 O          1.8982994650       -3.9916820627        2.0981687667
 H          2.2117851880       -4.2553205331        1.2100836534
 H          2.7027393157       -3.6992737977        2.5730546399
 O         -1.3576065496       -0.5277739178       -5.9568413412
 H         -1.2714254353        0.3702284703       -5.6204503427
 H         -0.4883160670       -0.9414659460       -5.8150994490
 O         -6.3961309454        3.1464865858       -1.5922745461
 H         -7.1822721238        3.5921246361       -1.9064390510
 H         -6.3939703254        2.2577834729       -2.0278597984
 O         -3.3476830137       -0.8747326111        1.4737052198
 H         -4.1091616249       -1.4199086017        1.7704457103
 H         -3.1437546541       -1.1200035474        0.5455158857
 O          2.1087699247        3.9079941614       -1.5556692440
 H          1.3211260460        3.9061344433       -2.1233328722
 H          1.8473755311        4.4024967341       -0.7533062090
 O         -4.5494564576       -4.0665968997        0.5420033179
 H         -4.7297474460       -3.6723478321        1.4056483561
 H         -3.5830558816       -4.1706015653        0.4783844970
 O         -1.8522353544       -4.2185069789        0.1747295246
 H         -1.6624463496       -5.0618062231       -0.2789604823
 H         -1.5185259486       -4.3103746451        1.1062651693
 O         -2.2479251623        0.5938859927       -2.8776010442
 H         -1.7405479809       -0.2411201254       -2.8030331001
 H         -1.7293888247        1.1324039245       -3.4962416549
 O         -2.7352617160       -1.7527900718       -0.9261420111
 H         -2.6066916062       -2.6980332738       -0.7943404629
 H         -3.3548566519       -1.6206481962       -1.6679764134
 O          0.7749255177       -4.7728119814       -2.4708263259
 H          0.7341295313       -4.0219443586       -1.8491408521
 H          1.3947158330       -4.4777455539       -3.1891642461
 O          2.4281736193        0.9219088623       -4.5249222625
 H          3.1321217651        0.8431808905       -3.8443087600
 H          2.8792942008        1.1460348215       -5.3398357984
 O          3.5566014276       -0.6994294831        1.1941248010
 H          4.1665869081       -0.8710225826        0.4404675929
 H          2.6629458344       -0.6969315915        0.8317816857
 O         -1.7180726751       -4.1921694248       -3.4221429199
 H         -2.2741223897       -4.8400025583       -2.9857273246
 H         -0.7966459908       -4.4728123537       -3.2395760325
 O          1.0272945436       -1.4402379186       -4.9084999318
 H          0.4261770659       -1.5088893651       -4.1367523288
 H          1.5678430496       -0.6462416249       -4.7594451685
 O          5.4163270988       -3.5395310921        0.6128208265
 H          4.6691572952       -4.0394465347        0.2556932763
 H          5.1803395706       -3.3429888370        1.5319751731
 O          4.4519884509        0.7824165907       -2.7363706718
 H          4.7332413095        0.0453148116       -2.1838054048
 H          4.9058107539        1.5624130186       -2.3707704726
 O         -4.3497657164       -1.0982684723       -3.0372575651
 H         -4.0631278474       -1.6200767161       -3.8250753778
 H         -3.7679136825       -0.3151466423       -3.0636450175
 O         -5.8638129417       -2.3501370933       -0.9810462280
 H         -5.3394018677       -3.0576093152       -0.5395635038
 H         -5.4783120812       -2.1692372252       -1.8472137867
 O          2.2473712476        2.2328938809        2.0071555403
 H          1.5201915819        2.8390264057        2.2817847032
 H          2.1074421672        1.3983812512        2.5120606314
 O          6.0016335399        2.8844214818       -1.7628478068
 H          6.7385667802        2.9394682669       -2.3711211109
 H          5.4552592847        3.7055106208       -1.9149475432
 O          4.1938403692       -0.4409317450        4.6279378505
 H          4.0066654253        0.2807601108        5.2588923127
 H          4.8367862228       -0.0636598254        3.9964027107
 O          2.4252301573       -3.6526838647       -4.1621386280
 H          1.9305994763       -2.9680656653       -4.6507940453
 H          2.8878255847       -3.1623238025       -3.4620574779
 O         -6.5344653241        0.6701394208       -2.4829568867
 H         -5.8951786006        0.1264366926       -2.9627264699
 H         -6.4305393059        0.4002741784       -1.5475083761
 O         -1.0802357201       -6.3503686245       -1.2917524831
 H         -0.7716029697       -7.1855354308       -0.9415753863
 H         -0.3275940071       -5.9368536438       -1.7558991062
 O         -0.3193824342        4.1261661682       -2.8067630224
 H         -0.4460498968        4.9522853128       -3.2746793360
 H         -0.7604829419        4.2363020016       -1.9258569028
 O         -0.3661172806        1.8455812633       -4.4533462706
 H         -0.3386321657        2.6777943556       -3.9577466975
 H          0.5467951530        1.5275537894       -4.4915051538
 O          4.3176905521        3.1619356998        3.3953897243
 H          4.8238431755        3.7288024885        2.8005035126
 H          3.5027503315        2.9256101154        2.8960466217
 O         -3.4183379774        1.3940386707       -0.5266228933
 H         -3.5510427129        2.3535550583       -0.5705225792
 H         -2.9924228196        1.1279574330       -1.3577474520
 O          4.5113127093        5.0000126951       -2.1799248091
 H          4.4628247823        5.5845042107       -1.3971456184
 H          3.6237192195        4.6026570001       -2.2120348580
 O          2.8888290162       -4.4207697419       -0.3886915085
 H          2.5166156800       -5.0813949600       -0.9776101463
 H          2.9082256709       -3.5869856311       -0.9164899497
 O          4.0720668747       -2.6733978472        2.9275903312
 H          3.8801085536       -1.9235271285        2.3189182662
 H          4.2410861217       -2.2555885371        3.7793730001
 O          5.3908449293        0.8393025840        2.5147088938
 H          4.6331518885        0.4612626139        2.0358040086
 H          5.1004507887        1.7068134639        2.8643135537
 O          3.6459052654        2.1058407390       -0.2210787081
 H          3.1944364892        2.7297493237       -0.8161551288
 H          3.1276499255        2.1187846246        0.6120631503
 O          1.1260659709        5.1848230332        0.6387412303
 H          0.2273329268        5.2544060807        0.2862917184
 H          1.0131816367        4.8379176309        1.5366246534
 O         -5.5326087351        0.0092652314        4.0000822693
 H         -4.8795059639        0.5957396326        3.5803024967
 H         -6.3625810727        0.2269276615        3.5394979325
 O         -5.6866743141        0.1293974306        0.0123576580
 H         -5.6043936318       -0.8128138475       -0.2265656267
 H         -4.8116967918        0.5553999658       -0.1448799203
 O         -4.1007743081        4.1109206474       -0.5313263669
 H         -4.4554530546        4.1384483188        0.3633409512
 H         -4.8662841540        3.9155418533       -1.0987496099
 O         -1.4139854237        4.5437199593       -0.4231198600
 H         -2.3530386521        4.7003662371       -0.5943033896
 H         -1.4308963687        3.8458625418        0.2768911153
 O          3.3539124874        1.8962622648        5.7282430392
 H          2.4031709466        2.0434424263        5.6860675955
 H          3.7521951548        2.4874038763        5.0734270542
 O         -7.7293853620       -2.2161856378        1.0272071813
 H         -7.2406696173       -2.2098931976        0.1856520871
 H         -8.1753913709       -3.0624091468        1.0704497337
 O          3.1356551459       -2.2507527231       -1.9164751613
 H          2.5978450327       -1.4683992594       -1.6785889271
 H          4.0449953942       -1.9958368007       -1.7027109393
 O         -3.2003452553       -2.3396714846       -5.0532157766
 H         -2.6645872610       -3.0922402102       -4.7774874211
 H         -2.5899822727       -1.6906730331       -5.4576128598
 O         -5.3850420791       -2.2345826652        2.5154027317
 H         -5.4275162183       -1.5687639947        3.2352418129
 H         -6.2484726293       -2.1868433107        2.0670376310
 O          1.8469742848        0.0834245801        3.4749611629
 H          2.6870530576       -0.2080792459        3.8987806155
 H          1.5778857140       -0.6031832467        2.8382415252
 O          5.3354465401       -1.2145186238       -0.7258285334
 H          5.6080553846       -2.0511633679       -0.2907900583
 H          5.9902007375       -0.5224819858       -0.4507652549
 O         -0.7702978620       -1.6739408955       -2.9256655107
 H         -0.3904964031       -1.9790745804       -2.0696765278
 H         -1.3048338790       -2.4226355109       -3.2342415986
 O         -2.1599893530        0.6991820214        4.4614118491
 H         -2.8204469002        0.4182454685        5.0979200679
 H         -2.6510416620        1.1293796338        3.7435201656
 O          0.8666564790       -1.6222395196        1.6243804627
 H          0.0114592219       -1.5988996940        2.1188271651
 H          1.2738923111       -2.4974249396        1.8417398944
 O         -1.6193593758        2.7195008609        1.5076505700
 H         -1.2551651977        1.8868640371        1.0873841036
 H         -2.4952642886        2.4585691249        1.8445622675
 O         -7.3889161492        0.4734990131        2.0430355642
 H         -6.7436126540        0.3284087078        1.3154761819
 H         -8.0164298209       -0.2466524275        1.9436091344
 O         -0.8545607967       -4.2658153362        2.5942185708
 H          0.1127778961       -4.3136322546        2.5546359089
 H         -1.0768406042       -3.3958696503        2.9633448652
 O          1.8943828459        0.0756768225       -1.2783566760
 H          1.5813074232        0.3332134449       -2.1485824025
 H          2.6013834987        0.7070611235       -1.0355815477
 O          7.4134041639       -1.2522195487        1.9739778288
 H          7.7877943428       -0.8795896978        1.1729707710
 H          6.8614197339       -0.5655985163        2.3617172675
 O         -0.6202819791        0.5446414422        0.1981042922
 H          0.2227234466        0.3214587869       -0.2129352919
 H         -1.2954542636       -0.0255291175       -0.1800718402
