  99
       -167.94061353
 O          2.8331172283        2.2874133225        1.3716539229
 H          3.8019275315        2.3260890653        1.4062155203
 H          2.5898048296        2.7641654597        0.5522898944
 O          5.4979242688        1.7906447606        1.0527781154
 H          6.2798929376        2.2183275364        1.4027007748
 H          5.5143153204        0.8601640736        1.3511161556
 O          3.5714664190       -0.4363863054        3.8210821404
 H          4.0712979028       -0.5676870471        3.0057991403
 H          2.8396686419       -1.0678398687        3.7989470467
 O          1.0232548853       -1.4940984257        3.0623919848
 H          1.4715013319       -1.0272752996        2.3262865688
 H          0.3719744825       -0.8619469099        3.4092526139
 O          2.5042114731        3.3801902476       -1.0872001664
 H          1.7415888651        3.2339460045       -1.6621862138
 H          3.2513757006        2.9556955372       -1.5208696806
 O         -4.5533009078        3.2702725242       -3.5383196470
 H         -4.5165439263        3.2130809273       -4.4940219641
 H         -3.6360961016        3.2594119888       -3.2127730120
 O         -5.8170194799        1.5776559441       -1.9217095469
 H         -5.3880843401        2.2222365936       -2.5311881630
 H         -6.7373854050        1.8347721902       -1.8550250290
 O          2.4346247134       -0.3606878025        1.0767821213
 H          2.1212513333       -0.2387355484        0.1579762873
 H          2.6887060801        0.5447332868        1.3481483811
 O         -2.1200052917        2.8908196864       -2.3655877563
 H         -1.1489881874        2.8868735206       -2.4666121169
 H         -2.3173973155        3.2505482466       -1.4820221797
 O          1.8188780697        0.2807477150       -1.4218909445
 H          1.7323085688       -0.5339243154       -1.9653053592
 H          2.7386843827        0.6136132182       -1.5248582428
 O         -4.1953281890        1.3662998336        0.2655264668
 H         -4.8165291091        1.3830681064       -0.4856641806
 H         -3.8212439409        2.2590668823        0.3171882660
 O         -2.1624613871        0.2363962823       -2.7975644833
 H         -1.3888995884        0.0695161850       -3.3690095902
 H         -2.2449219992        1.2102516938       -2.7228685763
 O         -2.4538833278       -2.0232170851        2.7189626494
 H         -3.2628202201       -1.4807909103        2.5618522408
 H         -2.5492108864       -2.3976878669        3.5941575754
 O          0.7623277032       -3.7233546624        1.6818844631
 H          0.7276154958       -2.9303624426        2.2709754220
 H          0.4397399044       -4.4648095120        2.1936868386
 O          1.9640288414        1.7737824436        3.9271310738
 H          2.1997952657        2.1778770497        3.0776193460
 H          2.6088950153        1.0500682778        4.0545508112
 O          0.4768625274        2.1967353104       -2.6916756550
 H          0.8765788156        1.4749364239       -2.1520452596
 H          0.4613185333        1.8406906589       -3.5855622567
 O          3.6340105187       -3.2130252280       -1.7337406521
 H          3.4287147868       -3.1708112204       -0.7500813055
 H          3.8476694031       -4.1268561255       -1.9256079647
 O          5.3738279005       -0.8807233009        1.5227420261
 H          5.3434715188       -1.1351723726        0.5825831952
 H          5.8983017972       -1.5448435367        1.9726862211
 O          1.4023619705       -1.9925483983       -2.7301432266
 H          0.7581270753       -2.3942380578       -2.1103322498
 H          2.2347824039       -2.4704847247       -2.5670274930
 O         -0.1591670976       -2.9561381746       -0.7925288819
 H          0.2364971829       -3.2826227018        0.0327530579
 H         -1.1020741210       -3.1433148679       -0.7049765374
 O         -0.4139597667        0.7317092663        3.8291581512
 H          0.4822785172        1.1769815368        3.8930426059
 H         -0.8276912984        0.8528162807        4.6838649278
 O          3.2540880939       -2.9588628683        0.8107360855
 H          3.1288740609       -2.0062026445        0.9763264142
 H          2.4398778042       -3.3824191481        1.1297878171
 O          0.0718382169       -0.1845140983       -4.3055628849
 H         -0.0648430603       -0.5320662945       -5.1878180075
 H          0.5764802612       -0.8621993224       -3.8188203361
 O         -5.2949393828       -2.3045277611       -0.2478419756
 H         -6.0680906274       -2.8302621148       -0.4539190678
 H         -5.0818293889       -1.7890931664       -1.0655282133
 O          4.3701450584        1.1161623636       -1.4390180346
 H          4.8320427361        0.2652672622       -1.5132306003
 H          4.7153119047        1.5048122558       -0.6197626966
 O         -2.7319206724       -2.9769864503        0.2246603284
 H         -3.6959902011       -2.9755287809        0.0826893036
 H         -2.5895617500       -2.8780900037        1.1874634047
 O         -4.6896258697       -0.8832937721       -2.3917124897
 H         -3.7956080849       -0.6228477186       -2.6584332070
 H         -5.1915865935       -0.0559002025       -2.3136075455
 O          5.5319059670       -1.3833924593       -1.2206006502
 H          4.8627516259       -2.0462450116       -1.5002684926
 H          6.3568594597       -1.6155808794       -1.6485804324
 O         -4.6693413375       -0.7505957556        1.9838656000
 H         -4.6044942189        0.1309939093        1.5893123264
 H         -5.0476191118       -1.3166333850        1.2925351307
 O         -2.7348518548        3.7322761815        0.1782568192
 H         -2.1426465412        3.2488614789        0.7895673433
 H         -2.8248374959        4.6252219711        0.5122673074
 O         -1.2499914374        0.0686208180       -0.1488843925
 H         -1.5849318373        0.1904696207       -1.0507213114
 H         -1.6715345904       -0.7340498335        0.1711398024
 O         -3.4046720952        1.4074748704        3.7345999786
 H         -3.8975148136        0.6549821913        3.3970461751
 H         -2.7999292520        1.6533914009        3.0177379305
 O         -1.3927590715        2.0282682136        1.6841740266
 H         -0.9568093296        1.6107105565        2.4471904896
 H         -1.3561397527        1.3315067450        0.9906857663
