  144
       -244.35380845
 O          1.9721030160        1.5231510186        2.4807343152
 H          2.4571747237        2.3499103998        2.6380415004
 H          2.1319442780        0.9408113773        3.2359241442
 O          6.5350681526        0.5305855598       -0.2333082532
 H          6.5209741931        1.3287742259        0.3029392966
 H          5.5990807919        0.2816972550       -0.3451121474
 O         -3.8232756882        1.2823963201       -0.1835424935
 H         -3.7610204340        0.5444077509        0.4473670325
 H         -4.7362691749        1.2614264226       -0.5419690180
 O         -1.7864270914       -1.4609684878       -3.4870091174
 H         -0.9115970840       -1.0850732674       -3.6810708555
 H         -2.4352519002       -0.8670050404       -3.9062619952
 O         -1.0572426363        1.7085897412       -3.7388776916
 H         -0.4545675221        0.9546866078       -3.8444244745
 H         -1.9309819071        1.3999524533       -4.0252024037
 O         -0.7052201754       -4.0186255701       -3.2810705205
 H         -1.2041957967       -3.2260878676       -3.5322853581
 H          0.2284877086       -3.7770665109       -3.3578530560
 O         -1.0726604173       -0.6417640281        3.7896559264
 H         -1.0238044257       -1.5354023050        3.4255659654
 H         -1.9823035056       -0.5050999800        4.1096797510
 O          2.2738002141       -2.1463611089        3.2485106584
 H          2.1118614227       -1.4854646518        3.9375833852
 H          1.3933285713       -2.5005928646        3.0410260483
 O         -0.2643046742       -3.3121542745        2.8115056176
 H          0.0932219811       -3.6888752578        1.9493304908
 H         -0.3424081390       -4.0536274909        3.4132559065
 O         -3.4719993401        0.4596531178       -4.3931032023
 H         -4.2640892467        0.2586213520       -3.8256487180
 H         -3.8008459815        0.4846522872       -5.2918814771
 O         -1.6093859535       -4.1495077537       -0.7669867253
 H         -1.9694085853       -3.2331716109       -0.7503098449
 H         -1.3225029002       -4.2833990395       -1.6965616282
 O         -4.2017667305       -4.3882511501        0.2431953135
 H         -4.6866843492       -3.7760805567       -0.3378017736
 H         -3.3770220239       -4.5979399894       -0.2229442470
 O         -3.0744455683       -2.9620299737        2.1910215073
 H         -3.5238765845       -3.5371393414        1.5253827886
 H         -2.1351069683       -3.1738645171        2.1491467878
 O          3.0929651872        4.0115160544        2.4827894208
 H          3.2109409093        4.8063265840        3.0014347833
 H          2.4968238519        4.2550630007        1.7216270693
 O          4.3312494072       -0.2932557789        2.5321041726
 H          3.7261363093       -0.9848860600        2.8307207323
 H          5.2060186262       -0.7352365345        2.3971788499
 O         -5.6002896399       -0.2098068611       -3.0172942998
 H         -5.9809764776        0.4360127365       -2.4067265929
 H         -5.5029531647       -1.0319331609       -2.4955659982
 O          1.4637734962        4.4250720829        0.4670806259
 H          0.5214771075        4.5517269027        0.6857473810
 H          1.4980877940        3.5003421366        0.1157503179
 O         -3.9555969623       -0.5282055978        1.8523055320
 H         -3.9007889187       -0.1944012117        2.7630124790
 H         -3.5808008657       -1.4443863877        1.8904345476
 O          0.7073963290       -0.4624462354       -3.9709694812
 H          1.4474118646        0.1249702496       -4.2421176877
 H          1.1314387303       -1.3230233678       -3.7879906497
 O          2.7482079080        1.2072567531       -4.3922126364
 H          2.3893519887        1.9565581283       -3.8847724956
 H          3.5573165711        0.9278189443       -3.9450085512
 O          1.2767540612        3.0008122497       -2.8708093537
 H          1.1550711474        2.5592473860       -2.0181811829
 H          0.4451981350        2.8835470450       -3.3454761274
 O         -0.6294965728        1.9986470939        2.8983386880
 H         -0.8750230955        1.0995433491        3.1610013626
 H          0.3320620901        1.9401244705        2.7233946147
 O         -6.4302461692        1.2497461005       -0.7729884606
 H         -6.6874361147        0.5521861364       -0.1524042323
 H         -6.6197538321        2.0989914428       -0.3369090864
 O         -5.2335207980       -2.1813031870       -1.1535979696
 H         -5.7275571163       -1.7359962139       -0.4456691326
 H         -4.2905774110       -1.9281484870       -1.0355480619
 O          5.1032411157       -2.8906910411       -0.2576112914
 H          4.9129276538       -3.0364572064       -1.1954114868
 H          4.4922549800       -3.4472013719        0.2692672696
 O          0.6735300869       -4.1305661983        0.5461746072
 H         -0.1649567535       -4.2875266238        0.0414151311
 H          1.0838992939       -3.3603983163        0.1070530443
 O         -6.4969472881        3.5420349403        0.7309290641
 H         -5.5561667382        3.6378888715        0.9706636828
 H         -7.0028236852        3.8507937863        1.4823658276
 O          4.1483920601        2.2713020745       -1.0592163992
 H          4.5565650909        2.3328171770       -0.1723568079
 H          3.9758044099        3.1916477476       -1.3643266209
 O          1.3856940223       -0.0207881386        4.7672347960
 H          0.4696870300       -0.2046386443        4.4749919111
 H          1.3387817511        0.2588999543        5.6811064122
 O          4.5815945368       -2.3371350451       -2.9599154863
 H          4.6029535294       -1.3642059118       -2.8256079878
 H          5.2345824781       -2.5249102100       -3.6344392256
 O         -1.5042161862        2.3353525011       -1.1554855595
 H         -2.3985043836        1.9967974643       -0.9865810759
 H         -1.3338885803        2.1796048897       -2.1038108395
 O          1.6696014585        1.8849189059       -0.2822940229
 H          2.5965391837        1.8616937747       -0.6199915297
 H          1.7231548513        1.5486103717        0.6224982554
 O          6.5643893277       -1.4397907041        1.6739729170
 H          6.8209130277       -0.7607610886        1.0209953465
 H          6.2622832173       -2.1874161042        1.1413407793
 O          3.1933979380        4.6604932228       -1.7445109169
 H          2.6590637564        4.8863163178       -0.9690874018
 H          2.5607653896        4.3030852110       -2.3858048772
 O         -3.0802246520        2.7852090732        3.9197176668
 H         -3.4922881726        3.0397349007        3.0644490675
 H         -2.1303356085        2.7656836867        3.7336153176
 O         -1.1746924058        3.9462831084        0.9575496486
 H         -0.9997732811        3.2734511152        1.6360204246
 H         -1.2365526770        3.4524310160        0.1142273258
 O         -2.6381625334       -1.6706662653       -0.9355005065
 H         -2.3744475124       -1.5238881156       -1.8649997790
 H         -2.1827111163       -0.9737113602       -0.3883199946
 O          1.8699414057       -2.8130620543       -3.1940984837
 H          2.8236570547       -2.7983659004       -3.3622126432
 H          1.8036748630       -2.5876525532       -2.2463347380
 O          5.0243414664        2.2746887304        1.5020331232
 H          4.4791330320        2.9773872181        1.8887459826
 H          4.7762615187        1.4579635013        1.9613229836
 O          3.9247358448       -0.5240831741       -0.0919045643
 H          4.4340999227       -1.3641227481       -0.1792940544
 H          3.9273209780       -0.3254182973        0.8681407893
 O         -3.8406147587        3.4104055767        1.4156787246
 H         -3.8051214843        2.6076393215        0.8399309120
 H         -3.0267779667        3.9013298034        1.2035501487
 O         -3.5553881834        0.2870257137        4.4215209277
 H         -3.4025775996        1.2680871259        4.2713750756
 H         -4.1500742468        0.2151792540        5.1671262315
 O          4.9417333297        0.3520029999       -2.7741152275
 H          5.8903729681        0.4234770797       -2.6406035437
 H          4.5559590814        0.9621997024       -2.1095071213
 O          3.3672499194       -4.0807613633        1.4203218877
 H          2.5187359238       -4.3965005541        1.0856292054
 H          3.1598349304       -3.4459777573        2.1182510924
 O         -6.4255881515       -0.8966287014        1.0091561099
 H         -6.8321362190       -1.5791682538        1.5428676187
 H         -5.5219531299       -0.7378162213        1.3836526916
 O          1.5219124671       -1.7306951250       -0.7107803676
 H          2.3419053205       -1.2160261850       -0.5601302380
 H          0.7922505101       -1.0954011026       -0.6775178589
 O         -0.7080825850        0.0001179699        0.0943291395
 H         -0.5571005076        0.1084365369        1.0344712182
 H         -0.7872960001        0.8936770270       -0.2945096953
 O          8.2427209818       -0.1780422371       -2.2036556994
 H          7.7442830102        0.1036415237       -1.4197725573
 H          8.9446996435       -0.7435375542       -1.8815467788
