  86
       -142.08804858
 H          0.5059741169       -1.6254676574        0.6047233668
 C          0.5032284519       -0.5348609519        0.5839301543
 H          0.2100899829       -0.1660256940        1.5702028187
 C         -0.4828605175       -0.0289484169       -0.4761307878
 H         -0.2467407380       -0.4888999147       -1.4380324985
 H         -0.3904436458        1.0538065508       -0.5821586243
 N         -1.8605263088       -0.3530918308       -0.1448695339
 H         -1.8892245925       -1.3081289410        0.2006109041
 H         -2.1876868779        0.2437259734        0.6063130942
 O          1.8342412141       -0.1318696632        0.2982386824
 H          1.8472677159        0.8508043911        0.4035616414
 O         -0.8291609371       -2.5042132356        2.8669724330
 H         -1.1493374481       -3.1179544646        3.5295122562
 H          0.0061343474       -2.1171884685        3.2488206855
 O          1.9778614758        0.9914337305       -3.3471719561
 H          2.2563365032        1.6477932098       -2.6881123186
 H          2.1891382468        0.1168209453       -2.9687173056
 O          1.5221845771        2.4337557590        0.9535170839
 H          0.6761900931        2.3702837792        1.4418795197
 H          2.2470264551        2.3381480361        1.6163300428
 O          1.2699065512       -1.4085905733        3.9811818039
 H          2.1174751867       -1.4352022293        3.5110888753
 H          1.1379925317       -0.4661158311        4.1974594832
 O          1.1894132585        1.3311055482        4.1792913966
 H          0.4809982722        1.7565484741        3.6801690699
 H          2.0239702756        1.6829156262        3.8522460454
 O         -2.2299499190       -0.1211775271        2.8882598899
 H         -1.7381350475       -0.9602328237        2.9238636576
 H         -3.1077554798       -0.3473500577        2.5387801581
 O          5.8539705481       -1.2572465174        1.1463126448
 H          6.2470684073       -0.3900822785        1.2712978387
 H          5.6081874401       -1.3051490558        0.2090373321
 O         -3.8342041564       -2.9209950367       -0.0790239926
 H         -3.8781556534       -2.4474031805       -0.9275602560
 H         -4.1199813472       -2.2695197811        0.5823090234
 O          3.4536757447       -0.9470196680        2.3588707402
 H          4.3411443691       -1.2135424967        2.0497999916
 H          2.9149609079       -0.8319277133        1.5564654233
 O          3.5958379109        1.7482126383        2.4559145546
 H          3.5513225587        0.7798169395        2.6152319531
 H          4.2007596482        1.8259092772        1.6977443550
 O         -4.8183210631        1.4268932270        0.2231570619
 H         -4.8796845422        1.3465109846       -0.7440287521
 H         -4.0265440186        1.9690592482        0.3850620471
 O          5.0064108731       -0.9123303513       -1.4847228007
 H          4.0959048207       -1.1864987233       -1.7163754972
 H          5.5196198961       -0.9567905701       -2.2920488913
 O         -1.4788389851       -1.6512207813       -3.7469329570
 H         -1.1356083794       -0.7414952569       -3.7952663075
 H         -0.8678270577       -2.1436190772       -3.1744505408
 O          4.7856421407        1.5317534318       -0.0428352747
 H          4.1744627730        2.0549724377       -0.5817347813
 H          4.8725817354        0.6868094010       -0.5086529599
 O         -2.2924175107        2.5379186009       -2.2533271288
 H         -3.1662765344        2.1564410340       -2.4386945351
 H         -1.6534252333        1.9500352057       -2.6925838505
 O          2.6962544857        2.8556044671       -1.4032218170
 H          2.1597393765        2.7982092977       -0.5855323423
 H          2.7214374828        3.7799957751       -1.6512842255
 O         -0.6030523502        0.9713522722       -3.7823577794
 H         -0.7183561772        1.3183280597       -4.6679628191
 H          0.3754084468        0.9990752356       -3.6057345449
 O         -4.6961411881        1.1894547904       -2.5384445596
 H         -4.2949811440        0.2771431889       -2.4601152375
 H         -5.4342330248        1.1156251247       -3.1423769517
 O          0.2031328654       -3.0539214867       -1.9913085658
 H          0.2728282438       -3.9444324417       -2.3380982477
 H         -0.3029318522       -3.1425216322       -1.1488364648
 O         -0.8158536343        2.1107061444        2.2837397699
 H         -1.4258256607        2.5350252121        1.6577529928
 H         -1.3026408964        1.3185874559        2.5927380761
 O          2.3996630616       -1.3500646744       -2.0110939627
 H          2.1872630366       -0.9137437603       -1.1578734473
 H          1.7214952458       -2.0399355958       -2.1104761914
 O         -2.5385713807        3.0001574264        0.3199121216
 H         -2.3431221058        2.8026347470       -0.6338719190
 H         -2.7953406720        3.9224173062        0.3488003251
 O         -3.5149338796       -1.0826513763       -2.1270165962
 H         -2.9235092826       -0.7095893416       -1.4206394026
 H         -2.8939289700       -1.3737555458       -2.8316410574
 O         -1.2115707243       -3.4374885055        0.2439459687
 H         -1.0464113144       -3.2115516519        1.1729282040
 H         -2.1860637304       -3.4095321023        0.1222593212
 O         -4.5790109937       -0.8069449998        1.5964881032
 H         -4.6825191224        0.0066970074        1.0359344120
 H         -5.3967272263       -0.8938289853        2.0870063488
