  309
       -524.48434761
 O         -1.5184783019       -2.3222399207        3.1885415624
 H         -1.0300381963       -1.8570150790        2.4948888425
 H         -0.8410070534       -2.8073034329        3.7308104654
 O          3.5119343194       -0.8766144250        3.5517553112
 H          2.5440731209       -0.8021873842        3.3825172862
 H          3.9554531142       -0.8094912246        2.6979104919
 O          3.6901149249        1.5759444139        4.6953474008
 H          3.7661174711        0.7430825029        4.1775623576
 H          4.4433255628        1.5693239781        5.2875725923
 O          0.8685074518       -0.8777408785        3.2461775903
 H          0.3955770263       -0.0706814897        2.9663170601
 H          0.6640561889       -0.9919239350        4.1907062296
 O          0.9704226553        6.5405232499        1.4880606973
 H          1.8294177159        6.3790751079        1.0570035653
 H          0.3718181362        6.6763028687        0.7400954603
 O          8.7919220601        2.6870897759        2.3903256637
 H          9.5156289389        3.2271252534        2.0738540634
 H          9.0870309296        1.7472769672        2.2992999995
 O          3.4813955805        5.2312906141       -2.5807880743
 H          3.3402216702        4.2577321006       -2.5064132797
 H          2.6946457773        5.5495935287       -3.0379787171
 O          1.7354294094        3.0119090604        2.5003203483
 H          2.6020664786        2.5642699841        2.4514566933
 H          1.8332512100        3.7824565773        3.0882146873
 O         -0.4086699935        1.3822349091        2.4409731329
 H          0.3495371796        1.9752595326        2.6131453235
 H         -1.1051971067        1.6208421627        3.0810880286
 O         -3.0071088398        1.8536277875       -1.1364587882
 H         -2.2405781342        2.3463004166       -0.7847859110
 H         -2.6335867558        0.9692712819       -1.3756193201
 O          6.4321710054        2.7067206909        1.0417750019
 H          7.2813981453        2.6987954844        1.5172807476
 H          6.6211741699        2.5266955759        0.0945372271
 O          4.8819791187        1.0163398811       -2.6663369336
 H          4.8596254081        0.1585688262       -2.1984524206
 H          4.0792288143        1.4996282757       -2.4076314521
 O          5.1729109650       -1.1885707678       -1.0942846547
 H          5.4038022560       -0.9435253647       -0.1729708925
 H          4.3950911222       -1.7616106422       -1.0633196845
 O         -3.6093454338        1.7307773084       -4.0261442612
 H         -3.0207234374        1.0495606081       -4.4217392214
 H         -3.9163067598        1.3600496358       -3.1828389125
 O          0.3216903293       -2.4596917739       -1.8159582771
 H         -0.2648178628       -2.2962556450       -2.5802547413
 H         -0.2683570571       -2.7655789569       -1.1128297455
 O         -3.8277109212       -1.8554176488       -2.4857099977
 H         -3.8828681563       -1.9484091161       -3.4539065498
 H         -4.3616141451       -1.0636935418       -2.2779141758
 O         -6.0706905811        0.6463916623        0.3940187241
 H         -6.8938412922        1.1262892787        0.1454786597
 H         -5.4833416353        1.3112880536        0.7861576966
 O         -4.0314683160       -1.7992203651        0.2789751156
 H         -4.8118107565       -1.5080945294       -0.2189982040
 H         -3.6693309234       -1.0526958395        0.7989732981
 O          3.3774569359       -5.2251812182       -1.5836784432
 H          3.1200547776       -5.8806525382       -0.8980506796
 H          2.6376406604       -5.1733134328       -2.2227994139
 O         -4.3465597978       -4.4270191102       -1.6308669401
 H         -4.1901605163       -3.4659572758       -1.7008554149
 H         -5.2419512917       -4.5422140383       -1.2908771449
 O         -1.3129080760       -2.3910849742       -3.9562509417
 H         -0.6455478561       -2.7733925771       -4.5899962603
 H         -2.0331296107       -3.0425307404       -3.9363527616
 O         -3.2191799770       -4.4414264174       -4.1203852258
 H         -3.7386313981       -4.5266037006       -3.2995539182
 H         -2.4402311510       -4.9891682393       -3.9538285874
 O         -2.9193691869        5.1695764738       -1.0209831190
 H         -3.1700107281        5.1689291143       -0.0874632024
 H         -1.9647826243        5.3989161680       -1.0093950683
 O          4.4654907327        4.1055828622        3.8191469578
 H          4.0620911464        3.2281345763        3.9475321597
 H          5.3895213029        3.9520303545        4.1074474872
 O          1.6361703939        2.5487567807       -4.8066051530
 H          0.9296176775        2.0315963765       -5.2775787564
 H          1.6772074361        3.3994520872       -5.2426476430
 O          1.2490412714       -4.6153044446       -3.0556241694
 H          1.0790440423       -3.7692069892       -2.5767472852
 H          0.4272637661       -5.1139907778       -2.9171293872
 O         -8.7425960894       -3.0017189005        1.0133768662
 H         -8.1243381798       -2.5232899576        1.5864415120
 H         -9.0735080687       -2.3288719584        0.4034497702
 O          9.5184056072        0.1959572820        1.8732630376
 H          9.0259642344       -0.5367149980        2.2686855732
 H          9.2861353009        0.2005253729        0.9298778071
 O          2.7360873933        2.6825754851       -2.3195977007
 H          2.2670234947        2.5363456003       -3.1619020228
 H          2.0567099802        2.8810571132       -1.6556429433
 O          7.8209843035       -1.9361058285        2.6165799913
 H          8.1282931033       -2.5320712636        1.9119701090
 H          7.1435431773       -2.4240157144        3.1333315878
 O          6.1313261657        5.0010870854       -1.6268394782
 H          5.9923622631        5.2877249798       -0.7187400586
 H          5.3077306811        5.1703471558       -2.1040823908
 O         -2.3825213757       -0.6083892812        5.0265910145
 H         -3.3415118740       -0.7124009562        5.0290941683
 H         -2.0830666764       -1.1921599471        4.2860249359
 O         -4.8801513785       -0.4547812423        3.8756264834
 H         -5.0434004917        0.5018006674        3.9841282542
 H         -5.6475761470       -0.8021330160        3.3864133281
 O         -5.2405697939       -3.4727566479        1.9071379150
 H         -5.8481685563       -2.9185233300        2.4042633467
 H         -4.7472843680       -2.8522717093        1.3090679719
 O          2.5734961046       -0.8210131418       -2.3683384642
 H          2.3245771496       -1.5839255386       -1.8238481078
 H          1.7522899212       -0.5319512974       -2.8069120977
 O         -7.4121339557        2.8516413444        2.7570652366
 H         -7.0516381709        3.3569812941        2.0129365785
 H         -6.6656594187        2.6702788566        3.3435813905
 O          4.6234313809       -2.3641276386        1.4258960958
 H          3.8293828597       -2.5401458833        0.8787456048
 H          5.2923026493       -2.9360206914        1.0003103490
 O          8.3946526120        0.3468392330       -0.6502010143
 H          8.0285737234        1.1292464539       -1.0985816120
 H          8.2611927860       -0.3991411212       -1.2507124806
 O         -1.2809986961       -5.2993226527       -2.3406720511
 H         -1.4937765210       -4.5493204083       -1.7516925224
 H         -1.5623050803       -6.0773994873       -1.8521154765
 O          4.4243345817       -2.0642979888       -3.8832150072
 H          3.7383692991       -1.5960075012       -3.3622456797
 H          4.5743592393       -1.5240682167       -4.6595731663
 O          7.5551733074       -2.0530146262       -1.8228708934
 H          6.6404556935       -1.7354081271       -1.6084738771
 H          7.3969583148       -2.7819522204       -2.4307587901
 O         -7.1663171767        2.5052988528       -3.0858496970
 H         -6.7970810086        2.1191226395       -3.9172818518
 H         -6.4066900331        2.9534782036       -2.6785946441
 O         -2.2680230489       -0.2437976574       -5.1600117260
 H         -2.9851147194       -0.7099568877       -5.6023762424
 H         -1.8086518177       -0.9476001783       -4.6397803232
 O         -0.6996440426       -0.8823008325        0.7022605888
 H         -1.3280726729       -0.3635870749        1.2237387630
 H          0.0640887587       -0.2820545498        0.4499438212
 O         -4.8910870052        2.2481932318        3.7737091837
 H         -4.0022713881        2.2985314091        4.1741106551
 H         -4.7085030921        2.2997636104        2.8218413489
 O         -0.0654060444        2.7897987873       -2.3346597320
 H         -0.2815430539        2.8152278744       -1.3887815012
 H         -0.8757386042        3.0924868047       -2.8080103931
 O          0.7235545095        5.1702364278       -3.3940963192
 H         -0.0177588068        5.2832750201       -3.9925323643
 H          0.6311121877        4.2504336231       -3.0624822113
 O         -3.0189622533        0.0251044160        1.9465361105
 H         -3.2633818564        0.9457205636        1.7695056781
 H         -3.5497805297       -0.2548929743        2.7169289132
 O          0.5539500764       -3.4476626182       -5.4342555518
 H          1.0769058109       -2.6422605027       -5.5929179977
 H          1.0089878188       -3.9447452861       -4.7301114728
 O         -6.9174611481       -1.1664349171        2.2113627547
 H         -6.5227675289       -0.6836249636        1.4533168835
 H         -7.7025174062       -0.6294759677        2.4113178236
 O         -1.8528678791       -3.3798567154       -0.3752960625
 H         -1.9746815997       -3.8753322026        0.4483586806
 H         -2.5914323141       -2.7525705069       -0.3838922178
 O         -1.0259530102        2.7987952627        0.2834756709
 H         -0.9759355050        3.6100443102        0.8139395154
 H         -0.8302774926        2.0936022373        0.9362016657
 O          6.2493156487        0.4539220366        3.8000965412
 H          6.0482966626        0.4460760646        2.8469314030
 H          6.9956019918       -0.1384412622        3.9112803673
 O          6.8486053321        3.0465033419        4.4148416478
 H          6.5889070394        2.1156175388        4.2713526289
 H          7.5994060237        3.1736165938        3.8220115716
 O          3.1542895201        5.8333686293        0.0201487221
 H          3.3629087496        5.8135802314       -0.9348716384
 H          3.9746082160        5.5792987653        0.5056844147
 O          0.1759223644       -1.2051377477        5.8865272218
 H         -0.7728129777       -1.0091191278        5.8610980305
 H          0.2496851101       -2.1651748677        5.7777090900
 O          1.4715423473        3.8005383638       -0.0475679249
 H          2.1385565297        4.5213553589       -0.0559916488
 H          1.4569980625        3.4976964454        0.8849251261
 O          4.3395668214       -5.2122262849        2.1691079018
 H          4.9426014745       -5.1681198398        2.9149613642
 H          4.8681088020       -4.9807192201        1.3836675662
 O          0.2205374240       -3.6857934498        4.6136817551
 H         -0.1249519315       -4.5776769137        4.3760546266
 H          1.0742818430       -3.6222510420        4.1459459263
 O         -6.4369971597       -1.8190681568       -1.0913430487
 H         -7.2507977529       -1.3744123753       -0.7843319547
 H         -6.5405418411       -2.7623760160       -0.8395284254
 O          0.7191354713       -3.1772210938        1.0291269543
 H          1.2439178586       -3.1449972896        1.8518106774
 H          0.2091446367       -2.3515707359        0.9556481815
 O          1.5289784807       -0.9198791235       -5.4674015540
 H          1.0367338586       -0.6121075788       -4.6872216677
 H          2.4082965552       -0.5021379976       -5.4021553535
 O          3.7163528053        0.6483046619       -5.1266594502
 H          4.2340698532        0.7210895789       -4.3036657436
 H          3.0998283147        1.3954271824       -5.1043399930
 O          6.0635450469       -4.2353413744        0.2157640714
 H          5.8849877347       -4.1662875254       -0.7496935824
 H          7.0202880133       -4.1656939576        0.3166091023
 O         -4.4030433917       -2.1224495102       -5.1309433553
 H         -5.3400345391       -2.0909643945       -4.9011536278
 H         -4.1249831450       -3.0492296187       -5.1228843823
 O          0.2731392117        0.2357304921       -3.2926884571
 H          0.2678964823        1.1919783574       -3.1254262889
 H         -0.4831807604       -0.1087574243       -2.7787797243
 O         -6.7201137851       -4.3157294279       -0.1758356051
 H         -7.6211840219       -4.1350746395        0.1523520042
 H         -6.1575259524       -4.2316262043        0.6223947467
 O          0.0192347948       -5.7810300168        0.8814658840
 H          0.1821703204       -4.8180867283        0.8335864731
 H         -0.8066923745       -5.9617692243        0.4131569740
 O         -8.8527546967        0.7110174356        2.0806643656
 H         -9.7369604625        0.8641269754        2.4104207704
 H         -8.3344633994        1.5228087109        2.2905286192
 O         -2.7221968456       -4.4449430928        2.1268848986
 H         -2.3105652932       -3.6448424395        2.5227691039
 H         -3.6759022290       -4.2873728461        2.1908498194
 O         -2.2773554060        1.9669276802        4.3270831528
 H         -2.2372924548        1.0518894333        4.6916195962
 H         -1.7272535128        2.5405990071        4.8689160991
 O         -8.7930669141       -0.6425355903       -0.4382064062
 H         -8.9596081420       -0.1926000801       -1.2799900804
 H         -8.8398104452        0.0273530602        0.2611729679
 O          6.8814900519        2.3862184229       -1.5645645282
 H          6.1679044842        1.9000885430       -2.0397776648
 H          6.7387920543        3.3320568364       -1.7545494045
 O          2.4423184349       -3.4579342972        3.0898818133
 H          3.0725494225       -4.1219970071        2.7542116645
 H          2.9535297655       -2.6692870599        3.3307185684
 O         -1.7879822431       -0.3893695870       -1.6887821714
 H         -1.3907230550       -0.7234237937       -0.8566424389
 H         -2.4065185355       -1.0731532336       -2.0188744030
 O          0.9935995051        1.4374443001        5.0812725797
 H          1.9599576405        1.5153798581        4.9946575983
 H          0.8212825663        0.6323148470        5.5815057666
 O         -3.3689250344        4.9156093557        1.7429856588
 H         -2.4118465560        4.8383402287        1.9876716322
 H         -3.8115750709        5.3132114452        2.4919192835
 O         -5.0269144734        3.5516576362       -1.6411914496
 H         -4.4544351859        2.7601304968       -1.6007616278
 H         -4.3997851093        4.2907369959       -1.6356308981
 O          6.3786636500       -0.2190108843        1.1103185558
 H          7.0672603295        0.1502755251        0.5280662425
 H          6.8193054708       -0.9348113003        1.6058493754
 O         -0.2818292460        5.6824949139       -0.8749879046
 H          0.2246942989        4.9134671961       -0.5318542568
 H          0.0549828807        5.7919384122       -1.7791729701
 O         -2.7003585882       -6.1509481229       -0.1049694388
 H         -2.8645861693       -5.8767094298        0.8041581193
 H         -3.3029047265       -5.6119840377       -0.6473907969
 O          5.2665049961        5.0532590588        1.3644804505
 H          4.9384243645        4.8987283067        2.2673763581
 H          5.7265285784        4.2091866927        1.1549306581
 O         -0.1836247976        3.8153367131        4.7998529738
 H          0.2768267899        2.9556811937        4.9078267773
 H          0.5141151442        4.4785543975        4.8678985700
 O         -2.1304463650        3.9122629728       -3.5036125197
 H         -2.7236558828        3.1793573149       -3.7717848076
 H         -2.5561116368        4.3681789605       -2.7684257426
 O         -5.1403060717        0.4684744809       -2.1174906820
 H         -5.8836434210        0.2361640404       -2.6867440785
 H         -5.4788314108        0.4902160597       -1.1997844825
 O          2.0311903054        5.2989668374        3.9502947199
 H          2.9888054258        5.1387681876        4.0223237703
 H          1.8896370361        5.9817168100        3.2855607815
 O          5.6418702654       -4.0288540185       -2.4392341139
 H          4.9080221348       -4.6561630463       -2.3336798140
 H          5.2510516809       -3.3032291352       -2.9634451519
 O         -6.7360491513       -1.2925794909       -3.7161713048
 H         -7.6293490866       -0.9269316895       -3.6707489552
 H         -6.5668803415       -1.6505990743       -2.8169824369
 O         -0.8181613488        4.6187207393        2.2955866266
 H         -0.6279923413        4.2797065900        3.1965631888
 H         -0.1552668856        5.3096751488        2.1102027566
 O         -8.8831195506        0.3804708784       -3.0400803642
 H         -9.6716304905        0.5972387054       -3.5363220893
 H         -8.3158061299        1.1752676661       -3.0589452501
 O          2.8877681430       -2.8656885229       -0.5016852659
 H          3.1290983308       -3.7326893505       -0.9097310939
 H          2.0058038791       -2.9986411727       -0.0980692024
 O         -6.0296154794        1.1931066370       -5.0834854316
 H         -5.1033103892        1.4415934094       -4.8796697848
 H         -6.1016224967        0.2458779631       -4.9164174326
 O         -6.4719304361        4.1951079838        0.4977156194
 H         -5.8949568164        3.9068964160       -0.2523872943
 H         -6.5234482291        5.1485337322        0.4479544302
 O         -4.1228021884        2.3898438040        1.1579844584
 H         -3.8831783208        3.3241025346        1.3106491213
 H         -3.7377596391        2.1617688927        0.2721848695
 O          5.6346750679       -2.9485853554        3.8141731241
 H          5.1598099354       -2.7643978899        2.9719102274
 H          5.2964184687       -2.2922605560        4.4278120159
 O         -0.7861720535       -5.8827495844        3.5033906194
 H         -0.3079656651       -6.0147204044        2.6643791657
 H         -1.6538199017       -5.5580091995        3.2215526376
 O         -0.0818361302        1.1483008193       -6.2310646328
 H         -0.9109552234        0.8102500928       -5.8574383697
 H          0.4886380713        0.3618292148       -6.3013448557
 O         -8.0769021234        2.1608817459       -0.4773126656
 H         -7.8145438051        2.9793888277       -0.0343836853
 H         -7.8669586951        2.2945987169       -1.4147544480
 O          2.5688533697       -6.7161189968        0.4668430614
 H          3.0760140026       -6.3571405640        1.2045748341
 H          1.6383922102       -6.4799923079        0.6273783118
 O          8.6125143991       -3.1997130834        0.3161797766
 H          8.2562210278       -2.7103518063       -0.4716706474
 H          9.5463750907       -3.3311309670        0.1570939139
 O          4.0417626241        1.3829403245        1.5886689342
 H          4.7790638958        2.0132621913        1.5245217816
 H          4.4278689036        0.5685971030        1.2541703848
 O          1.5533755208        0.4577609649        0.0296401326
 H          2.2155686298        0.9085653198        0.5600695925
 H          1.9732377755        0.1697986615       -0.7939968386
 O          8.2463828390        0.0460492929       -3.5339820123
 H          8.0579278033       -0.8285650891       -3.1739227917
 H          7.4168719580        0.5281295675       -3.5417338800
