  121
       -203.85260045
 H          0.0111389278       -0.1135800191       -1.6408426535
 O         -0.1074130241       -0.1426860004       -0.6306629998
 H          0.7736975497        0.0514387080       -0.0879515867
 H         -0.5090047575       -1.0351596956       -0.3262467404
 O          0.8461147951        2.4789791478       -0.7568675719
 H          1.4747286324        1.9126863096       -1.2619380025
 H          0.9521434243        3.3677900054       -1.1116467095
 O          0.3350206746        3.4887431230       -4.0177619902
 H          0.6707723854        4.0141149772       -3.2732962595
 H         -0.5498000419        3.1764726358       -3.7864648035
 O         -0.1662393751        0.0534784386       -3.1514545007
 H          0.5636925177        0.3334942530       -3.7224057531
 H         -0.8399495998        0.7642748356       -3.2226788863
 O         -0.0594237863       -2.1203726500        2.9387760188
 H         -0.4100521090       -3.0041076831        2.6664479399
 H         -0.5037255209       -1.9288456181        3.7815783194
 O         -3.0139673084       -1.5497802423        2.4796804098
 H         -2.5882835220       -1.4819535201        3.3534086726
 H         -3.6170492796       -0.7909602256        2.4231291545
 O          0.7978666443       -5.2067679047        0.2494130759
 H          0.4133967291       -5.1847259364       -0.6676357116
 H          1.2869105235       -6.0260120110        0.3260079551
 O         -1.8338453283        4.3801530341        1.3297520766
 H         -0.9033465680        4.7067898129        1.1871465460
 H         -2.3722872703        5.1649164338        1.4346075893
 O          4.4617113669        0.2090126387        0.1119084929
 H          4.7289355902        1.1318607038        0.2503120065
 H          4.7316770243       -0.0598397620       -0.7861693896
 O         -3.7059637684       -0.1274783625       -2.5879840714
 H         -4.5369288255       -0.6039742699       -2.5245528076
 H         -3.3844553248       -0.0476627278       -1.6639465619
 O         -2.4380536803       -3.4469187200       -1.7808061731
 H         -3.3188050218       -3.1713625518       -1.4547753297
 H         -2.2978174678       -2.9618928528       -2.6125966911
 O         -2.1320329518       -1.8247836793       -3.9502690663
 H         -2.6272523412       -1.1010095637       -3.5054630068
 H         -2.5244918392       -1.9443235720       -4.8151262925
 O          4.6470261121        2.8878862537        0.7495108271
 H          5.2677201185        3.2792717113        1.3638550490
 H          3.7472241814        2.9860612729        1.1464999718
 O         -1.7635152073        2.4502774410       -0.5417800143
 H         -0.7843708986        2.3294741135       -0.5493016880
 H         -1.9246964302        3.1783019446        0.0865758999
 O         -3.7779795096       -3.9211463657        1.5728525021
 H         -3.5542099205       -3.0962575869        2.0578613095
 H         -4.3037922031       -4.4652304859        2.1590262523
 O          1.7004985105       -2.6987881564        0.6283161924
 H          1.0378239683       -2.3642508836        1.2449832228
 H          1.4594553471       -3.6343039655        0.4881842212
 O         -1.1590780136       -2.2644902071        0.2255746374
 H         -1.5942348264       -2.7797110238       -0.4912192491
 H         -1.8137431358       -2.1096130956        0.9202296014
 O          2.5890783220        1.0874731531       -2.1584167661
 H          2.4381895576        1.1541905161       -3.1172734880
 H          2.5614958100        0.1356881467       -1.9492068005
 O          2.2150027489       -1.5628450901       -1.7392326369
 H          2.0415847581       -1.9692695208       -0.8647661219
 H          1.6072964634       -1.9838156180       -2.3704062086
 O         -1.7249162696       -1.2137817941        4.8801444457
 H         -1.9117299204       -1.5877077882        5.7410655338
 H         -1.4777751705       -0.2605826738        5.0409309204
 O          2.1301547973        3.1335383019        1.5641511741
 H          1.7132986249        2.6351876574        0.8305996663
 H          1.8202712475        2.6921706372        2.3807009546
 O          0.4788324216       -2.6945742452       -3.5178825342
 H         -0.3295507742       -2.1539931188       -3.5954272996
 H          0.8170162272       -2.8137249418       -4.4060165149
 O          4.1376517420       -1.9807136036        1.7822619932
 H          4.4583066213       -1.2470121177        1.2346368435
 H          3.4271921112       -2.4040325100        1.2745350790
 O         -4.4489724538        0.8018606364        2.1842702537
 H         -5.3021247016        1.0735296461        2.5212918816
 H         -3.7736320984        1.4249385161        2.5600268059
 O          1.5505464684        4.9141216793       -1.8999656134
 H          2.4486537045        4.4697358713       -1.8602510399
 H          1.7056668390        5.7839494857       -2.2707521324
 O          0.5956741163        5.2217187374        0.8149638699
 H          1.2222158907        4.5880725051        1.2210104151
 H          0.8561673751        5.2864604389       -0.1136521344
 O         -4.4690752642       -2.2573699265       -0.5191426885
 H         -4.4709539810       -2.9273550828        0.1837732273
 H         -3.9700990366       -1.5093920401       -0.1668534058
 O          2.2816257956       -0.7218728963        3.1633782723
 H          1.5865442554       -1.3897034446        3.2638583745
 H          3.0916298129       -1.2034084921        2.8724404401
 O         -1.9675070054        2.0486989362       -3.1712281597
 H         -2.7912488810        1.5723477076       -3.3184421725
 H         -1.9775997587        2.3073699601       -2.2261142084
 O          1.8996989609        0.3620757689        0.7431932196
 H          2.8098647055        0.2960150948        0.3778494863
 H          1.9533722415       -0.0440235075        1.6362200115
 O         -1.0817513822        1.2986800250        5.2485597569
 H         -1.7186928763        1.8276663773        4.7475467253
 H         -0.2167236390        1.4961994691        4.8449071161
 O          3.7688382298        3.5542192546       -1.7576520297
 H          3.5323205767        2.6400729362       -1.9812040480
 H          4.2035021243        3.4894226305       -0.8907028037
 O         -2.4079439189        2.2525954015        2.9896097182
 H         -2.2056534596        3.0672075264        2.4983765739
 H         -1.7695416930        1.5829324757        2.6653945593
 O          1.7103945911        1.3486500494       -4.6861392243
 H          2.1987152682        1.4540179669       -5.5021631636
 H          1.2293143223        2.2013568575       -4.5277767480
 O          4.8635056528       -1.0802326891       -2.2352118558
 H          5.4647755503       -1.8230162280       -2.1770858686
 H          3.9582132478       -1.4322987551       -2.1583365181
 O         -0.8529880656        0.3027175985        1.9628057001
 H         -1.4724738910        0.1361736934        1.2367832377
 H         -0.5993563003       -0.5760589618        2.3074023023
 O         -2.9419268910        0.1856875391        0.0012204256
 H         -3.6285130068        0.4404634112        0.6381447698
 H         -2.4777774762        1.0312062140       -0.2225278685
 O         -1.0391360887       -4.4570790749        2.1735523437
 H         -0.4342526965       -4.8071614511        1.4981777789
 H         -1.9237301972       -4.4446639923        1.7818900911
 O          1.0085773364        1.6273872048        3.4901391292
 H          0.3889571731        1.2620364130        2.8354513766
 H          1.6468250498        0.9113911415        3.6412030899
 O         -0.2349566737       -5.0196817551       -2.1463768669
 H          0.1482483939       -4.2788503774       -2.6426385403
 H         -1.1557593669       -4.7633285717       -1.9904609477
