  132
       -218.68209834
 H          1.5875159327       -0.1948235903        2.0842921595
 C          1.7739040895        0.0519281057        1.0379696032
 H          2.5046030408        0.8612238246        0.9855033357
 C          0.4830400508        0.5065939602        0.3682375380
 H          0.6418349570        0.5941638297       -0.7047706868
 H          0.1814602703        1.4698387076        0.7723488751
 O          2.2738202927       -1.1168162368        0.4260323896
 H          2.6249030066       -0.8509971332       -0.4498864891
 N         -0.5674171513       -0.4899976177        0.6240073955
 H         -0.1926367026       -1.4483051690        0.4076170005
 H         -1.4289379140       -0.3320207834        0.0524441782
 H         -0.8248052358       -0.4270839164        1.6280295841
 O          0.6367523254       -3.8790695899        2.6524799595
 H          1.5311470229       -3.4560945264        2.6993640142
 H          0.7573634822       -4.7848968318        2.9386097887
 O         -1.7993056783       -2.5392884585        2.7971061398
 H         -1.5647924817       -1.6620589660        3.1388428609
 H         -0.9923646932       -3.0718361615        2.8551488405
 O          5.7588211173        1.6989110314       -2.8293807219
 H          5.9322142710        0.7404640705       -2.7975533034
 H          6.5528813359        2.1180193000       -3.1643309548
 O          5.1877846926       -0.2560037542        0.2828397496
 H          5.3637033611       -1.1727224456        0.0208348443
 H          4.5132679034        0.0345802852       -0.3584433093
 O          2.9968721110        3.0118153025        0.9116315764
 H          3.9099991888        2.9236267810        0.5658697476
 H          2.5107673369        3.4679180933        0.2063816895
 O         -0.8692050849       -1.9189091704       -2.9429876407
 H         -1.1214884616       -2.7785781729       -2.5720576628
 H          0.0384614717       -2.0432428503       -3.2811006199
 O          6.1445971725       -1.0751473586       -3.1364325602
 H          6.8084160100       -1.3532491902       -3.7690565549
 H          5.2831327806       -1.0732488255       -3.6169519878
 O          5.2564994175       -2.6363372405       -1.0634917609
 H          5.7693074364       -3.4420581669       -0.9923507747
 H          5.6091213910       -2.1297634311       -1.8220977985
 O          3.3811914435        1.8493057766        3.4830553826
 H          3.3603616447        2.3417524295        2.6507805657
 H          3.8299979110        1.0031566961        3.2964803989
 O          2.5527787828       -3.3603479285       -1.5102095282
 H          3.4207179622       -3.0468354333       -1.2161476552
 H          1.9032342166       -3.1284209515       -0.8223570581
 O         -0.8395414225        4.2094413766        0.2877397994
 H         -0.4229458359        3.9548218406        1.1315211635
 H         -1.1816565490        3.3635588574       -0.0857868492
 O          3.3071815389        0.1090169714       -1.6913907462
 H          3.5361232645       -0.3288623815       -2.5327759240
 H          2.7119145165        0.8410460847       -1.9309070921
 O         -3.2894803315        0.0216706040        1.3108108033
 H         -3.6161591890       -0.5312115742        2.0567717749
 H         -2.9347264599        0.8302767791        1.6896012004
 O          1.4219086393        4.2248549093       -1.0694746270
 H          0.5527709648        4.3149754815       -0.5982150052
 H          1.6580606589        5.0969470725       -1.3863370421
 O         -2.8788949237        2.1501150252        3.2091128151
 H         -2.6820237375        2.7419974228        3.9365464078
 H         -3.8152574358        1.8178098682        3.3660567116
 O         -1.0425460656        0.0679829024        3.2995853890
 H         -0.2553534932        0.4164000148        3.7526436824
 H         -1.6952569751        0.7905455376        3.3308816998
 O         -4.4227734540       -1.4410884095        3.2322804136
 H         -3.7617652462       -2.0706958995        3.5352129519
 H         -5.0316674298       -1.9573863229        2.6444206375
 O         -1.8606715158        1.9259445631       -0.5756260627
 H         -2.8039586901        2.0827925631       -0.6763188505
 H         -1.5444687060        1.5955660035       -1.4352877476
 O          0.3168051637       -3.0101665731        0.0863825811
 H         -0.3249210191       -3.5171008435       -0.4403009804
 H          0.3977732765       -3.4381412656        0.9578422769
 O          1.0052208000        1.4183010821        4.4674637182
 H          1.0412596471        1.6032412518        5.4061489597
 H          1.9367719424        1.5286782884        4.1311631203
 O         -2.6128454497       -0.8144822103       -1.1448736306
 H         -2.0662900966       -1.2419989105       -1.8197569280
 H         -3.1624104916       -0.1576462177       -1.6154482165
 O          3.7587519817       -0.8734879433       -4.1988806694
 H          3.5737951896        0.0410400357       -4.5244245931
 H          2.9340289954       -1.3907395532       -4.2363268339
 O         -5.6636240264        0.9729362537        0.6852495893
 H         -4.7762174879        0.5466471371        0.7980619840
 H         -5.5007627248        1.7355374943        0.1062722871
 O         -3.1477424797       -2.9055028712        0.4373001665
 H         -3.1224068622       -2.0271132071        0.0056684544
 H         -2.6813012831       -2.8003409318        1.2896800517
 O         -1.6794804630       -4.1183923470       -1.3810546377
 H         -1.9650189251       -5.0147298551       -1.5560751071
 H         -2.3207950105       -3.7342181666       -0.7274388839
 O         -5.7170811117       -2.7954580289        1.3823810588
 H         -4.8818244255       -3.0348552204        0.9434638282
 H         -6.2128283327       -2.2691151687        0.7352185983
 O          3.0222514956       -2.7875753959        2.4177756032
 H          3.5372367666       -2.1477290783        2.9270023148
 H          2.8100378348       -2.3122859264        1.5937311886
 O          1.4963827679        1.9585160225       -2.5656026949
 H          1.4508366894        2.7981228318       -2.0710617340
 H          0.5948821702        1.7264539157       -2.8310405592
 O          5.4190684720        2.5063380665       -0.1606719465
 H          5.4239274576        2.3679124654       -1.1207185495
 H          5.6649446019        1.6544411469        0.2191421993
 O          3.4640679112        1.7232987669       -4.4879871524
 H          4.2478925920        1.9275559379       -3.9550775976
 H          2.7004334082        1.9339470662       -3.9246125231
 O          4.6114130450       -0.5082310989        2.8788322142
 H          4.7877349879       -0.4040726025        1.9131551025
 H          5.4671086806       -0.5467131605        3.3079268981
 O         -4.6666516745        3.0283447252       -0.8258031197
 H         -4.2268605376        3.4601874339       -0.0377109325
 H         -5.2125667362        3.7099909168       -1.2191462481
 O         -5.2714159196        1.1800525068        3.4399391053
 H         -5.1426989685        0.2351993561        3.6180038073
 H         -5.6645265189        1.2264650205        2.5518026073
 O         -3.8929388144        1.0156501002       -2.6570749663
 H         -4.6667279240        0.4745737898       -2.9081520417
 H         -4.2538784961        1.7675447435       -2.1675134608
 O          1.6423382759       -2.5021914683       -3.7877659431
 H          2.0095852579       -2.8329859489       -2.9177174345
 H          1.6199194529       -3.2605286662       -4.3726422737
 O         -1.0762766225        0.9194998055       -3.0116156626
 H         -1.9714620175        1.0676316695       -3.3444948692
 H         -0.9263491105       -0.0360824753       -3.0831938921
 O          0.5087585936        3.1074698105        2.3175103387
 H          0.5512824462        2.6199186768        3.1527550037
 H          1.4186362712        3.1713803763        1.9995679046
 O         -3.4242671446        4.0495313248        1.2242275582
 H         -2.5630257105        4.3861378260        0.9208498780
 H         -3.2271493292        3.3892512711        1.9106663186
 O         -6.0511018813       -0.5556396457       -2.9440062022
 H         -6.3811990560       -0.7943240144       -2.0548944726
 H         -6.2155129080       -1.3074903814       -3.5129474993
 O         -6.9473738235       -1.0426989306       -0.4138131941
 H         -6.5214701213       -0.2570336290        0.0168328144
 H         -7.8903395819       -0.9575217288       -0.2670806894
