  102
       -167.76787518
 H         -1.6292764694       -2.0352509621       -2.9059136434
 C         -2.3982098368       -1.4886900215       -2.3573447406
 H         -3.2637619954       -1.3497309297       -3.0091354358
 C         -1.8782965098       -0.1138164261       -1.9464285299
 H         -2.5809576477        0.3358984003       -1.2476110909
 H         -1.8255862536        0.5157311175       -2.8328438470
 O         -2.8406709933       -2.2375201075       -1.2384819094
 H         -2.1140247828       -2.8447144527       -0.9457473391
 N         -0.5365835732       -0.1731230421       -1.3344319847
 H          0.1735594505       -0.3303390209       -2.1140282301
 H         -0.4395175072       -0.8925303525       -0.5948636908
 H         -0.3251154701        0.7459897112       -0.8992918464
 O          3.4353741718        0.0675603968        2.7353835064
 H          2.6144669703        0.5490120309        2.5143477210
 H          4.0855236188        0.7752624881        2.8506117475
 O         -0.8375388766        0.7536086820        3.7799810651
 H         -0.7502277965        0.5948054579        4.7202692815
 H         -1.3434051490       -0.0053206913        3.4054073342
 O         -2.0546823042       -1.2407181198        2.5679517259
 H         -2.4439540284       -2.0988462165        2.8785920172
 H         -2.7324405844       -0.8852244367        1.9476449101
 O          1.1590015831        1.3919161988        2.0464309910
 H          0.4504993261        1.0861563835        2.6432302184
 H          1.1107075897        2.3555272075        2.0637125506
 O          2.6901647317        2.8878759823       -1.8598401849
 H          2.8845605064        3.4057229179       -1.0524490448
 H          3.5415201846        2.6827074609       -2.2753593065
 O         -2.2462065373        2.4412239092       -4.0247798864
 H         -2.3758976461        2.8126214063       -4.8980243635
 H         -1.3171447177        2.6038582873       -3.7850621388
 O         -2.7059122555       -5.2271000112        0.8664262862
 H         -2.5529304893       -6.1706713823        0.9307893362
 H         -1.9685161231       -4.8492029782        0.3529002311
 O         -0.0946838871       -1.7204365321        0.9150604506
 H         -0.8062520692       -1.5365417365        1.5780792266
 H          0.7230849879       -1.8560445156        1.4171966827
 O          2.8708266206       -1.8894290167       -0.5313261537
 H          2.5624276834       -2.2491057180        0.3132559163
 H          2.5852147832       -0.9534099469       -0.5331665381
 O         -3.3288006869       -3.4796573198        2.9842410906
 H         -4.2172638092       -3.1778532009        2.7328930514
 H         -3.0902869470       -4.1632937878        2.3393608868
 O         -3.9780605978        2.6403468049       -1.8984499157
 H         -4.7194394278        3.1723089477       -2.1872876858
 H         -3.3707707229        2.5669005686       -2.6578286985
 O         -4.8599086371       -3.9545214176       -0.3269911532
 H         -4.3477544289       -3.3778168789       -0.9101521337
 H         -4.2129660716       -4.5591544195        0.0731774670
 O         -0.5144450770        2.3672791515       -0.3487679262
 H         -1.4387171790        2.2945181316       -0.0296903691
 H         -0.0828720726        3.0058817171        0.2417286309
 O          5.1169763047        1.8003799737       -2.6266303034
 H          5.2458830145        1.5746299256       -1.6778233278
 H          5.9683783110        2.0485862532       -2.9869223714
 O          0.2563058328        2.5897580251       -2.9637795339
 H         -0.1076700022        2.6041237254       -2.0593002955
 H          1.1568708768        2.9330786744       -2.8559343322
 O          0.3521300342        4.0742932105        1.6566309335
 H          0.2989666054        5.0310012776        1.6317836709
 H         -0.4781347608        3.7786154324        2.1355809792
 O          0.8809793686       -2.6852684418       -2.2556077519
 H          1.0636086060       -2.3651171175       -3.1414740531
 H          1.6812467152       -2.5005673858       -1.7306366736
 O          3.0239526692        3.8985942550        0.6083864134
 H          3.6052062453        3.4675194202        1.2574426705
 H          2.1769063665        4.0433990150        1.0419919955
 O          4.7973611152        2.4366215002        2.1839834027
 H          4.9830478664        1.9830732624        1.3266764972
 H          5.6023691802        2.8830733720        2.4467005025
 O          4.9027124073        1.0707237353       -0.0855035413
 H          3.9309185924        0.9600535642       -0.1696733252
 H          5.2272023003        0.1850134142        0.2063228420
 O          2.2740504772       -2.2997997610        2.1592104682
 H          2.4415730587       -2.9943190208        2.7967663447
 H          2.7192150914       -1.4951498328        2.4850960449
 O         -1.8068868868        3.1306771767        2.7478904625
 H         -1.5598116321        2.3251053216        3.2312574830
 H         -2.4026406268        2.8435871884        2.0359925142
 O         -0.8248601812       -3.8169707552       -0.5046329341
 H         -0.2255532167       -3.7423723406       -1.2653117674
 H         -0.4820865355       -3.1532630670        0.1366538115
 O         -3.0316514030        2.0261758685        0.5402113417
 H         -3.4889999424        2.3680026233       -0.2510781538
 H         -3.4192629479        1.1512834287        0.7085220965
 O          0.9744753310       -0.0523629043       -3.4652620750
 H          0.8093916107        0.9016897192       -3.5449907917
 H          1.9448905640       -0.1672125752       -3.3961440427
 O          3.5884738962       -0.4635331706       -3.0973198764
 H          3.8403047156       -1.0538766126       -2.3827187790
 H          4.1577509658        0.3216421289       -3.0472737241
 O         -3.8706818255       -0.6099524643        0.7463924266
 H         -3.5710445204       -1.1718099466        0.0055624420
 H         -4.6268782343       -1.0871246266        1.1367268638
 O          5.2010399908       -1.3391482700        0.8932169023
 H          4.7448128648       -1.1020077842        1.7117964775
 H          4.5458883253       -1.7850872885        0.3313589591
 O          2.1927632778        0.7159742683       -0.4071527098
 H          2.2135315075        1.4934086240       -1.0113687857
 H          1.7493039974        0.9903468278        0.4122753941
 O         -5.5902588379       -2.4581078313        1.7082264179
 H         -5.4375494008       -3.0555992972        0.9291063206
 H         -6.5237002402       -2.5051169884        1.9153978601
