  451
       -764.20407820
 H          0.0478554620        0.3867547959       -0.0681769697
 O         -0.3029636658       -0.5081574747        0.2429740870
 H         -0.3570281597       -1.2803668872       -0.4241142644
 H          0.2435731055       -0.9209880683        1.0298535081
 O          0.4116621591        0.3615817883       -5.1977361585
 H          1.1613971417        0.3253640018       -4.5864994924
 H         -0.2644666459       -0.2244288490       -4.8149263109
 O          4.5738480072       -0.3116613216       -1.6983623865
 H          5.0824922860       -0.5638707435       -2.4894013177
 H          4.5779143900        0.6587538559       -1.5819479644
 O          1.6719000987        2.8819378963       -5.3238205552
 H          2.3215097439        2.9834918552       -6.0404706936
 H          2.1952543197        2.4183322321       -4.6286112133
 O          1.1459822722        0.5317142037       -2.5521332573
 H          1.6093844998       -0.1008298060       -1.9572453666
 H          1.0039873383        1.3248140322       -2.0232135126
 O         -0.9760014229       -0.8517360205       -3.1778400542
 H         -0.1428367111       -0.4314882055       -2.8720437825
 H         -0.8435714575       -1.8001192051       -3.3196353071
 O          0.2899786562        1.9114095213       -0.4007332142
 H         -0.5895696181        2.1956506706       -0.7370432349
 H          0.4940392882        2.4983101785        0.3440925498
 O         -2.6152685675       -0.1135775562       -1.2304526813
 H         -2.0744517435       -0.4908360262       -1.9583976516
 H         -3.5415776450       -0.1445619771       -1.5109608942
 O         -0.0320882943        1.1022345796        2.5032308340
 H         -0.8972809554        0.8448087530        2.1257083363
 H          0.0316094852        2.0639651241        2.3820465524
 O         -2.4731677730       -5.0705959001        0.5983748994
 H         -2.8768719842       -5.7547630511        1.1552601612
 H         -1.5434903255       -4.9904681602        0.8872853828
 O          3.0855843722       -2.1223079119        5.2002930475
 H          3.9268159368       -1.6193438129        5.3208387251
 H          2.4390527921       -1.4681239356        4.8827475974
 O         -2.4145267286        0.7177149327        1.3526638220
 H         -2.4389049409        0.2929346094        0.4770434367
 H         -3.0780208010        0.2761918172        1.9100010967
 O         -3.5304709803       -1.9980510470       -3.7145715372
 H         -4.0989309549       -2.0800097220       -4.5009192270
 H         -2.7143260594       -2.5043680332       -3.9143544819
 O         -2.1492625002        1.1285288611        4.5570897590
 H         -2.7831659142        1.5363363592        3.9304755312
 H         -1.3607290126        1.7058222782        4.5967237078
 O          2.2381181489       -1.0481937430       -0.7952068303
 H          3.1233000645       -0.9111100821       -1.1970642146
 H          2.2586155554       -0.4863153804        0.0097547961
 O          2.2707775298        0.5606819622        1.2852916570
 H          1.4614156106        0.7677886940        1.7893221402
 H          2.7340538024        1.4005608600        1.1143894508
 O         -5.5221665100        1.8841749968       -3.7234875731
 H         -5.3791862141        2.1180812803       -2.7806312262
 H         -6.4367026792        1.5710996240       -3.8060594245
 O          1.8220472595        4.7805584708       -0.2920896517
 H          1.3809969124        4.4216489014       -1.0746891571
 H          2.5671772111        5.3192764226       -0.6083937333
 O         -2.8159610734        4.5067886462       -2.9577369408
 H         -3.3602982220        4.9986432440       -2.3075164249
 H         -3.3956713844        4.3457189683       -3.7371336329
 O          3.0184340605        4.0548990758       -2.8338378189
 H          2.0633342297        3.9505319904       -2.9715669370
 H          3.4598789605        4.0683115993       -3.7063398491
 O         -4.8699641080        2.7635068183       -1.2662350199
 H         -5.1687919202        2.2666807353       -0.4740031225
 H         -3.9008283063        2.8047373536       -1.1931960993
 O         -3.1560896862       -3.0297185412       -1.2595949677
 H         -3.5793764028       -3.9017326907       -1.1565031742
 H         -3.4508130101       -2.6672545059       -2.1163035805
 O         -7.4929041511       -0.5502812481        0.8620871755
 H         -6.6126704650       -0.1300505008        0.8484417618
 H         -7.4071160660       -1.4302431823        0.4633855530
 O          7.5505582189        1.5880591803        2.6340860326
 H          7.3571654152        2.0566914978        1.8000435452
 H          7.6597611857        0.6620985733        2.3989451846
 O         -0.4910723080       -2.6881162591       -0.9189218387
 H         -1.4243485733       -2.8931425751       -1.1211916707
 H          0.0925503355       -3.0059488861       -1.6410779057
 O         -1.6500317348       -5.3912525785       -2.0153838611
 H         -2.1275997744       -5.3116880435       -1.1697584678
 H         -0.7038793397       -5.4743672714       -1.7242147779
 O         -3.8835209897       -4.9504079293       -3.9275095448
 H         -3.2917612873       -5.1963407469       -3.2084560785
 H         -4.6370573025       -4.4852961250       -3.5354849055
 O          0.5388766720       -3.2450543711        4.6986527280
 H          0.5951839516       -3.5644949400        5.6144689621
 H          0.0084908617       -2.4318850738        4.6947549523
 O         -4.2360829548        2.1278367962        3.2483063655
 H         -4.8764687725        1.5610626733        3.7123057900
 H         -4.5857420352        3.0294266284        3.3627642632
 O         -1.1814973216       -1.3200716368        3.8274172768
 H         -1.7798625172       -1.7133677273        3.1745644762
 H         -1.5427462614       -0.4490449107        4.0767388292
 O          5.0447350125        1.9534668713        6.4257612929
 H          5.3378739871        1.0314662860        6.3936501545
 H          5.3833144948        2.3554496954        5.5988603757
 O         -8.1305526447        1.0277809791       -3.6222697805
 H         -8.0748452687        1.1545023250       -2.6485961235
 H         -8.9038960563        1.5013842198       -3.9255699129
 O         -2.7066054982       -2.8332276342        2.0667222425
 H         -3.5754377014       -2.9489398435        2.4983878759
 H         -2.6745184387       -3.4753052795        1.3317718936
 O         -4.6711633650       -1.6635647145        0.3711522088
 H         -3.9370041950       -2.1130963586       -0.1057247251
 H         -4.3387569481       -1.3627230695        1.2359769978
 O          2.2557023812       -3.6358764141       -0.0178362574
 H          2.3298274835       -3.6109499027        0.9454049028
 H          2.2169457488       -2.7086140941       -0.3246349074
 O         -1.3871655754       -1.8327029821       -6.5001206978
 H         -1.9625589975       -1.0424090744       -6.5132642742
 H         -1.9929274846       -2.5947293461       -6.4628558178
 O         -0.7908561687       -6.9828978807        3.0431707224
 H         -1.0797663810       -6.0671974871        3.2515197884
 H          0.1540897381       -6.9924797339        3.2668721945
 O          7.1928332874       -3.2688298811       -2.4932463259
 H          6.6542360610       -4.0258809441       -2.7608801379
 H          7.2844070109       -3.3409150416       -1.5247861515
 O          5.9649026749       -1.3116142869       -3.7800601686
 H          6.4919254993       -2.0026355335       -3.3188905316
 H          5.4344516121       -1.8137653532       -4.4279079269
 O         -4.9890615520        3.5264942057        6.3948731302
 H         -4.7391616695        2.5955863031        6.5161723692
 H         -4.1436528568        4.0015321461        6.4650767389
 O         -5.0235105107        4.7698985155        0.9165053625
 H         -4.8032179019        5.3916492969        1.6366532613
 H         -4.3239230767        4.0831300870        0.9785736401
 O         -1.9796976971        7.2548599483       -1.0824127908
 H         -2.9103688810        6.9802816040       -1.1612745639
 H         -1.6432831542        7.2973249997       -1.9833957847
 O          5.7687319879       -5.9293980182        0.9308328256
 H          5.9320005368       -6.8694502446        0.9997948376
 H          5.0401759162       -5.8232907283        0.2613626678
 O         -0.9031919454        6.1988323741       -3.5063690367
 H         -1.6844024898        5.6036945335       -3.3519952116
 H         -0.6273202445        6.0182179281       -4.4194629543
 O          3.2984536597        2.9785289111        0.9348547951
 H          3.8760372931        2.7328788210        0.1762974688
 H          2.6598172963        3.6215079915        0.5540691695
 O         -3.4527201982       -7.1744008985        2.0816809153
 H         -3.4094287768       -7.7199227689        1.2836903938
 H         -2.6464052944       -7.3525243404        2.5843991550
 O          3.9949076769        6.0463886684       -1.4752173791
 H          3.5661308220        6.8460037291       -1.7874796379
 H          3.6845857946        5.3160526652       -2.0682067452
 O          3.5496035903       -1.5541848382        2.2561611030
 H          3.4015259070       -0.6341848475        1.9697558148
 H          4.3406109450       -1.5455750018        2.8229262787
 O          5.1970432142        0.5411686706        0.9929431742
 H          5.5699606114        1.3643455082        0.6434097190
 H          5.9423401979       -0.0783961448        1.0240392180
 O         -0.1096471194       -4.3057752553        1.3138147262
 H          0.5872539983       -4.0864011088        1.9373459761
 H         -0.1158368402       -3.5993902473        0.6476360655
 O          1.2066151289       -3.4057444161       -2.8432385301
 H          1.0399343460       -3.0535209694       -3.7364844746
 H          2.1389276222       -3.1862653020       -2.6155197538
 O         -0.5460169302       -0.3008194386        6.6110498538
 H          0.1094625916       -0.3309258926        7.3312353256
 H         -1.0622482041       -1.1189536687        6.6792852742
 O          5.2556987029       -0.6499677411        5.4997021974
 H          5.9358569683       -1.1929187657        5.0856833014
 H          4.9848855206       -0.0414108320        4.7649569204
 O         -3.5371633144       -4.4702896337        5.4880821628
 H         -3.8372214229       -5.3572782616        5.6815591077
 H         -2.7922213490       -4.5570136161        4.8376606410
 O         -3.0868267651       -7.7394151280       -0.6145722815
 H         -3.5524198987       -6.9073147430       -0.8308652920
 H         -3.1541134564       -8.3009356109       -1.3864219272
 O          4.4668181219        2.3343335900       -1.3287845975
 H          5.3729138557        2.5163224664       -1.6478115440
 H          3.8650762096        2.7327783610       -1.9859615146
 O         -0.0577865228        2.8315721037        4.6715119274
 H          0.1561643664        3.1591404140        5.5664357155
 H          0.8088583869        2.6561419395        4.2483740662
 O         -6.7964898724       -1.2344183141        3.3733756679
 H         -6.8709837678       -0.5056194033        4.0034931576
 H         -7.3018658538       -0.9833049307        2.5762421815
 O         -7.5958991390        1.4100897183       -1.0553866845
 H         -7.8811860134        0.8288900308       -0.3319105798
 H         -7.5456818983        2.3200522905       -0.6939595981
 O         -4.5348339911       -5.4089201033       -1.0408043409
 H         -5.2504532569       -5.1918645585       -1.6485733487
 H         -4.8966809685       -5.3214697997       -0.1345181999
 O         -2.8363433025        3.3236261969        1.1717850638
 H         -2.2496657403        3.7459615131        0.5152570012
 H         -2.6787235549        2.3549648780        1.1556997873
 O          0.7339471988       -5.6875515602       -1.0139306235
 H          1.1288406990       -4.9235300109       -0.5596756089
 H          0.4055813830       -6.3068714560       -0.3369120866
 O         -1.5643068092       -4.5462653278        3.7639857704
 H         -1.8770656703       -3.9278602734        3.0647851662
 H         -0.7323660584       -4.1443332500        4.0986440279
 O          2.5393751802       -2.6359316991        7.7573009603
 H          2.2361219683       -1.7905157669        8.1243227725
 H          2.7896127787       -2.4320943196        6.8259872230
 O         -1.3066529479       -3.4455739740       -3.8284973887
 H         -1.0472212367       -3.9059858397       -4.6452760314
 H         -1.4377863283       -4.1365486633       -3.1498288941
 O         -5.3612907114       -0.1235927687       -1.6778392942
 H         -6.0699835438        0.4964687113       -1.4355153790
 H         -5.2431162809       -0.7092234367       -0.9046091967
 O          0.2033048483        5.0637066336       -5.6928811000
 H          0.6815693964        4.2348666353       -5.4634751399
 H         -0.2163228427        4.8971357516       -6.5379614378
 O         -3.0512373232        0.3068274681       -6.4643265577
 H         -2.8684261606        1.1948456786       -6.8071086675
 H         -3.0626484411        0.4374194633       -5.4852715830
 O         -5.4926160404       -5.2640376347        1.4838610797
 H         -5.0447721083       -6.0489337878        1.8212063742
 H         -5.3389651773       -4.5749926461        2.1594141409
 O         -4.3447572596        6.0032741018       -1.3239412088
 H         -4.5641340409        5.5733853495       -0.4627586671
 H         -5.1490832759        5.9023278573       -1.8601076002
 O          0.3110638987        3.6560923339        1.7617137895
 H          0.8952448177        4.2677969765        2.2520041688
 H         -0.2145003620        4.2166195307        1.1653337932
 O         -5.5259028378        1.4016489164        0.9575713028
 H         -6.2701230363        1.8623963863        1.4045710525
 H         -4.7976670486        1.4976128123        1.5942945676
 O          1.7075472364       -5.9424097353       -3.4403428376
 H          1.4396847429       -5.0146354595       -3.2205383115
 H          1.8442368423       -6.3366683582       -2.5708560315
 O          0.9595377983       -2.5123686763       -5.3734126607
 H          1.3372175696       -3.1613852785       -5.9721346988
 H          0.0869051251       -2.2645401898       -5.7432192162
 O         -2.1294314000        2.4534188856       -1.3385964708
 H         -2.3242527272        1.4981778910       -1.4766362975
 H         -2.1888024620        2.9412350116       -2.1743811398
 O         -3.1968892344        0.6248672211       -3.8616980908
 H         -3.2743909806       -0.3445058926       -3.7062803209
 H         -4.0942634823        1.0016848464       -3.7966387559
 O          4.9467960310       -4.3614925984        2.9567877707
 H          4.7722742676       -4.8379357612        3.7789450325
 H          5.2593370290       -4.9910927983        2.2780825201
 O         -0.4496924825       -7.5659081772        0.4575613409
 H         -0.6090045485       -7.3556949833        1.4025363350
 H         -1.3169913703       -7.6670479829        0.0400079041
 O         -5.0065236884       -3.3856248003        3.3704229414
 H         -5.6814802360       -2.7005143079        3.4953449140
 H         -4.6393500305       -3.5911463321        4.2477812819
 O          3.4277322145        1.6421984935       -3.8005425447
 H          4.3329160960        1.6077247061       -4.1538174261
 H          3.1463060045        0.7239395146       -3.6818560405
 O         -1.0766795109        2.2833314679       -4.0727842985
 H         -1.7863886810        1.6473832492       -3.8630644597
 H         -0.3848422233        1.7514232262       -4.5128288025
 O         -6.0093274222       -3.6425333815       -2.6155521429
 H         -6.2303082716       -2.8964360137       -3.1937835387
 H         -6.4188227781       -3.4313789841       -1.7572608417
 O         -7.3513462315        2.7426413907        2.3726309763
 H         -6.8400436675        3.3612711916        2.9199028458
 H         -7.8000985945        3.2749085179        1.7089756597
 O         -4.2425598051       -0.5921017019        2.7970145839
 H         -3.9005311672       -0.9160442521        3.6567324135
 H         -5.2076371590       -0.6710069541        2.9076283890
 O         -1.7744125616        7.4785478953        1.7565083795
 H         -2.0687616513        7.8031779885        0.9012245076
 H         -0.8430795090        7.2183229110        1.5871650758
 O         -3.2029673965       -3.8831646704       -6.3071152308
 H         -3.9573876006       -3.3151374447       -6.5105308542
 H         -3.4413140406       -4.3244358817       -5.4650465201
 O          4.5161432936        0.8894625458        3.5479899165
 H          4.8029415256        0.8314198928        2.6147582224
 H          3.6856874204        1.3895106804        3.5758177635
 O         -1.5242694433        2.0808449464        7.6097261590
 H         -1.8619094383        2.7719909323        7.0160885807
 H         -1.2219012396        1.3283174188        7.0691923581
 O          6.8523839403        2.6016637228       -2.5367678354
 H          6.6497161049        2.1943152378       -3.3943046462
 H          6.8132397983        3.5700784014       -2.7084916549
 O         -3.8739137101        6.1677425467        2.9105308007
 H         -3.2673383126        6.8082463174        2.4985662326
 H         -3.2802353891        5.4715680829        3.2254323548
 O         -3.8873461429        0.9745273681        6.5541131464
 H         -3.2194714641        1.0467592764        5.8215675375
 H         -3.3799990209        1.1222320371        7.3617044593
 O          7.0600334228       -3.5378039732        0.2269846373
 H          6.9114441405       -4.4496914263        0.5034581926
 H          6.1539797844       -3.1432683231        0.1665942819
 O         -6.1404659752        0.9866727001        4.8749646039
 H         -6.6801563223        1.7593265395        5.0538687366
 H         -5.5473597008        0.8596017547        5.6279244954
 O          2.8563848903       -2.0904240538       -7.6759820075
 H          2.5198735135       -2.9814294657       -7.8184180893
 H          2.0831922706       -1.4920419361       -7.7689569312
 O          6.1494581092        3.1675368252        4.2508860546
 H          6.8785956036        3.7187131774        4.5348104090
 H          6.5479229594        2.4659091901        3.6857972156
 O          3.7665513097       -2.9054911852       -2.5082581955
 H          4.0708934439       -2.7840091454       -1.5925298277
 H          4.3072212805       -3.6339972689       -2.8646045682
 O         -1.1118034521        6.5900121534        4.5451707652
 H         -1.3229099333        5.8122449686        4.0004130547
 H         -1.2012683995        7.3414753972        3.9543710759
 O          3.7410563574       -5.7548006668       -0.7370688257
 H          3.2118951999       -6.4387939886       -0.2767051486
 H          3.2740949223       -4.9102637330       -0.5556891700
 O          2.3785700647        2.5340557143        3.6449331403
 H          2.8224972257        3.1588142995        4.2626850244
 H          2.5173376571        2.8785417021        2.7549570571
 O          7.6354484690        0.1274723590       -1.4220821774
 H          7.4375018487        0.9843378804       -1.8221953868
 H          7.6253014012       -0.5253005509       -2.1246481406
 O          0.6938219828       -0.4711782064       -7.7119709124
 H         -0.0888189513       -1.0369067838       -7.7386514996
 H          0.7150908191       -0.1548886101       -6.7813698494
 O          1.2025156673        5.7829722586        5.7174541762
 H          0.9415536435        5.0861920566        6.3387590491
 H          0.3795734259        6.2112091324        5.4174690931
 O          3.4855678902       -5.3834467883       -5.3442171859
 H          2.8486844558       -5.6594767955       -4.6531374559
 H          2.9466457557       -5.2499286948       -6.1356846498
 O         -6.2641826631        4.7028025041       -2.6712908677
 H         -5.7916853883        3.9874421475       -2.2030263411
 H         -5.9890366545        4.6499941248       -3.5907271369
 O         -6.4715127886       -1.1999035093       -3.8744938265
 H         -5.9533881293       -0.8277014611       -3.1269299785
 H         -7.2517382055       -0.6384259799       -3.9421390468
 O         -4.4263804613        3.9857280885       -4.9924590684
 H         -3.8181187129        3.7413224537       -5.7042725690
 H         -4.8432759089        3.1536488274       -4.6948438494
 O          3.5946949904       -4.8411390908        5.3394292352
 H          3.3498510105       -3.9042936323        5.2167810086
 H          3.9195220824       -4.8994222712        6.2378022731
 O          0.7644495864        6.8527065790        1.1153881519
 H          0.9427682847        6.1009785599        0.5233747122
 H          1.2222599257        6.6028302691        1.9343095155
 O         -2.4051114668        4.2825683381        6.1111332415
 H         -2.3437924562        4.1787748680        5.1394265752
 H         -2.0384231583        5.1488976907        6.2985873063
 O          4.4772610977       -2.8277020881       -5.4726600655
 H          4.0425694458       -2.5445842846       -6.2874822204
 H          4.2651010373       -3.7688022435       -5.3651816031
 O          2.3922648009       -7.4933675594        0.8320397017
 H          1.5117185116       -7.7881225477        0.5718794448
 H          2.3083729358       -7.2201037025        1.7596500912
 O          3.6756108791        2.7107015993       -7.1131610119
 H          3.5892085350        2.7490586040       -8.0650742932
 H          3.8255218538        1.7637783419       -6.8771969554
 O          4.7593696624       -2.3268528065        0.0077612519
 H          4.2881694982       -2.1378680647        0.8488793473
 H          4.9273392989       -1.4584974128       -0.4047514549
 O         -1.9619018393        4.2103654841        3.4701918479
 H         -2.2883599437        3.8279808377        2.6175608431
 H         -1.1373224219        3.7294565775        3.6909167956
 O          3.4961370927        4.2178669588        5.3688507014
 H          2.9001976977        4.8998309251        5.6995825639
 H          3.9621640094        3.8295698061        6.1118350632
 O          6.2629125499        5.1109144564       -3.1294368350
 H          5.6924219271        4.9770652093       -3.9028602429
 H          5.7412231668        5.5902551179       -2.4757270414
 O          7.5230833616       -0.9692512249        1.0469596893
 H          7.7177698326       -0.4922561446        0.2193551605
 H          7.6004471507       -1.9061231046        0.7999683358
 O          1.2856128540       -0.1015870847        4.6302100653
 H          0.5595788794       -0.2003046833        5.2762549613
 H          0.8957751301        0.3781685346        3.8813053997
 O          0.8185333774       -1.7220789173        2.0789930084
 H          0.2689983188       -1.5147975812        2.8563690266
 H          1.7599770184       -1.6395620238        2.3024981421
 O         -1.1105237497        4.8285158301       -0.2319571464
 H         -0.7479522895        4.4721993760       -1.0565464970
 H         -1.3895187705        5.7466374118       -0.4132118683
 O          6.0673788281       -1.9228715822        3.2832917428
 H          6.6569496109       -1.6316276936        2.5794553655
 H          5.8537089623       -2.8569865189        3.1222733815
 O          2.2957423852       -3.9901509297        2.7431720708
 H          3.2693828194       -3.9260830955        2.8146551252
 H          1.9154571227       -3.5419243292        3.5166680262
 O          1.9235241842       -6.5174728590        3.4133597044
 H          1.9922591256       -5.5828728357        3.0999615085
 H          2.4301731308       -6.5300371729        4.2279711981
 O          1.3698619307        7.0405303518       -2.1173110153
 H          0.5200168469        6.8884325794       -2.5559818639
 H          1.1624726618        7.4277806145       -1.2622375045
 O         -1.7809947259       -2.7484308931        6.7804117702
 H         -1.0254492444       -3.2821337364        7.0719747638
 H         -2.4844773658       -3.3775992012        6.5547209466
 O          1.5427933853       -0.1440008976        8.3476855334
 H          1.5379393095        0.3055020930        9.1916757071
 H          1.9842184359        0.4647855359        7.6960452470
 O         -0.7220989014       -6.8550223394       -4.2086232809
 H          0.2103274593       -6.6988396637       -3.9565830570
 H         -1.2407137193       -6.5252594725       -3.4608641940
 O         -5.6749155914        4.2936188524        3.9420880566
 H         -5.3340180877        5.1795410066        3.7793277026
 H         -5.5382596656        4.0982651863        4.8953119186
 O          5.1522811439       -5.1502748399       -3.0322526278
 H          4.6737314650       -5.5694027266       -2.2965469973
 H          4.8030711818       -5.5039686603       -3.8569764185
 O          2.8589628421       -0.9467989428       -4.2556925197
 H          2.2236667080       -1.5012118772       -4.7389361106
 H          3.3537472877       -1.5591398742       -3.6832843779
 O         -2.2698433057        2.9555443874       -6.4322507882
 H         -1.5155104622        2.8318620698       -7.0372885920
 H         -1.8757424031        2.8610268500       -5.5414487834
 O          1.5765542109       -4.6692300253       -7.3172191217
 H          0.7110651479       -4.8319532412       -6.8671380517
 H          1.5829566143       -5.2329657888       -8.0904420932
 O         -4.9151159110       -1.7301291923       -6.0445092669
 H         -4.4567863424       -0.9375393908       -6.3641065556
 H         -5.6466890531       -1.4439685804       -5.4719807906
 O          0.0967502931        2.3252353805       -7.5601261427
 H          0.5813319832        2.3242125031       -6.7178547414
 H          0.2222451441        1.4405345134       -7.9263723794
 O          6.7131812481        2.7780713083        0.3426767107
 H          7.2505459195        2.7016724975       -0.4489171534
 H          6.4503292091        3.7272378720        0.3975198018
 O          2.4569097458        1.4688099968        6.5040284256
 H          2.1944287258        1.0022674532        5.6837665152
 H          3.4265442799        1.6469253837        6.4471413762
 O         -6.7962844130       -3.1381428048       -0.0211261034
 H         -6.8113864118       -3.9342027239        0.5170608599
 H         -5.9463372597       -2.6878290625        0.1955630318
 O          4.4706977477        4.6542430072        2.6549373081
 H          4.1781454240        3.9505023642        2.0399263267
 H          4.9864269827        4.2037522031        3.3471939585
 O          0.7686115166        3.4547141640        7.1429273701
 H          0.0413865309        3.0167600077        7.6208932598
 H          1.4669134970        2.7807901088        7.0085842033
 O          0.5182606505       -4.1515794452        7.2562935091
 H          0.6914594007       -5.0411769417        7.5598090985
 H          1.2934672273       -3.5876581689        7.5527216992
 O         -7.4061915589        3.9613582628       -0.1539199740
 H         -7.4609185037        4.4476013353       -0.9823067237
 H         -6.5481443197        4.2189603743        0.2394241755
 O         -3.7399688239       -1.4828040579        5.2157008231
 H         -2.8890033899       -1.8579529337        5.4665416635
 H         -3.9431210072       -0.8047790266        5.8698872396
 O          5.9186782173        5.3029571437        0.4651199395
 H          5.4628817912        5.3111459036        1.3262730591
 H          5.2797609690        5.6239375828       -0.1835397223
 O         -0.7088046031       -4.9713753223       -6.0187165111
 H         -1.5746791501       -4.8457373251       -6.4263360580
 H         -0.7678246109       -5.7784838720       -5.4421556020
 O          5.9714396125        1.1806903544       -4.7058215308
 H          5.7494144151        1.0915974248       -5.6372147924
 H          6.0804195860        0.2612823386       -4.3841153932
 O          1.8992314123        5.3783966929        3.0925405368
 H          1.7053526090        5.5397212097        4.0316798811
 H          2.8668819318        5.2541779806        3.0234444869
 O          4.3572690213        4.5565014791       -5.0777301058
 H          4.2720633696        4.0085451596       -5.8685288532
 H          3.7766422826        5.3354695219       -5.1798030119
 O          2.4523799191        6.4464342920       -4.8002066377
 H          2.2069883598        6.7385951317       -3.9153010934
 H          1.6427006712        6.1094511852       -5.2123465771
 O          4.0673771986        0.1562288237       -6.4641505264
 H          3.8754338262       -0.5061719974       -7.1349869481
 H          3.6845967011       -0.2058710602       -5.6367941235
 O          0.3079424831        3.9776222728       -2.5326722388
 H          0.0244850283        4.8232945707       -2.9264328298
 H         -0.1571375291        3.2895417630       -3.0531131156
