  91
       -144.35343835
 H          0.2222432828       -4.6197696699        3.5165808868
 C         -0.2028461446       -5.1592166960        2.6726438002
 H          0.4222550180       -6.0258156805        2.4702444330
 H         -1.1937895521       -5.5102895448        2.9521906111
 C         -0.2738290671       -4.2517653683        1.4475665250
 H         -0.6966089631       -4.8211069622        0.6110895925
 C         -1.2040227075       -3.0614717777        1.7351292444
 H         -0.7651245860       -2.4510297285        2.5293484359
 H         -2.1695469342       -3.4403340029        2.0844854254
 C          1.1236300016       -3.7727556156        1.0606549762
 H          1.5319685602       -3.1390750306        1.8447630680
 H          1.1002978634       -3.2107142689        0.1311069091
 H          1.7861979320       -4.6234523660        0.9193477077
 N         -1.4596469299       -2.1876085782        0.6000770673
 H         -0.5916648080       -1.7541667390        0.3041603376
 H         -1.8153825714       -2.7211989709       -0.1890896270
 O          3.7293674666       -1.8058082108        0.2756676672
 H          4.1880022119       -2.5275178877        0.7063350224
 H          3.1522637213       -1.3962178588        0.9781174220
 O          0.4293645774       -2.3883327747       -2.4812008482
 H         -0.4739018622       -2.7612148263       -2.4056660593
 H          0.4522881197       -1.6664175409       -1.8279348542
 O         -1.1736171427        1.4320428250        0.5308571783
 H         -2.0127075046        0.9121743403        0.6673691234
 H         -1.3102190150        2.0206102713       -0.2421137420
 O         -2.1520411536       -3.0855703922       -2.1698013014
 H         -2.6222258635       -3.7512211347       -2.6713789444
 H         -2.5783060890       -2.2146639748       -2.4118305286
 O          0.0168937819        0.3337699530        2.7766387936
 H          0.3755526870        1.1751868323        3.1293721889
 H         -0.3633126922        0.5846778891        1.9212488517
 O         -3.1321750163       -0.1714155599        1.1193195854
 H         -3.1519436220       -0.1238094504        2.0914937121
 H         -2.6066423344       -0.9922080721        0.9087429092
 O          0.4497302256       -0.2063559251       -0.8270689100
 H          1.2833425981        0.3078542733       -0.9346958351
 H         -0.1227674705        0.3508544120       -0.2577786070
 O          2.5237889746        1.3597421980       -1.2998697146
 H          3.3754889274        1.1354965426       -0.8803428227
 H          2.6475191367        1.0985875834       -2.2452188555
 O         -0.0501075045        4.9010757001       -0.6652208992
 H          0.2529469240        5.5072793215       -1.3413734735
 H         -0.5105742036        4.1669483668       -1.1266299645
 O          2.9757295403        0.2190217657       -3.6301260141
 H          2.2006294708        0.0317195506       -4.1775335221
 H          3.2215490594       -0.6540191152       -3.2554223469
 O          2.5154701839       -0.6157334763        2.2382905356
 H          2.9742103805        0.2471458591        2.2459193745
 H          1.5758666994       -0.4177587443        2.4084250040
 O          1.1337946370        2.7425417537        3.1735196462
 H          1.2831883657        2.9325159958        2.2236268866
 H          2.0084791341        2.6888607729        3.5638526071
 O         -0.8425820866        0.6551076518       -3.0542471859
 H         -0.3584288179        0.3179724009       -3.8231722258
 H         -0.3692351607        0.2957201900       -2.2712985505
 O          0.6490606275       -0.9199993823       -4.7022739173
 H          0.5948949559       -1.5528195901       -3.9435341373
 H          0.5042055094       -1.4284304874       -5.4993268772
 O         -3.9105639941        3.5369935188       -0.9546257405
 H         -3.4685058576        4.0907129185       -0.2526703153
 H         -4.6408786954        4.0603943970       -1.2840239455
 O         -1.4307721687        2.8869031958       -1.7270598724
 H         -2.3884145753        3.0660759598       -1.6838615188
 H         -1.2791301346        2.1770375096       -2.3792999268
 O         -1.6116610698        3.2950742903        2.5530830613
 H         -0.7898590572        3.3744799749        3.0466668509
 H         -1.4575906214        2.5998966331        1.8901757363
 O          4.9336528662        0.5110332820       -0.3314330789
 H          5.4919208004        0.4114574719       -1.1039506400
 H          4.5866935684       -0.3840516439       -0.1174292028
 O          1.7307081862        3.1992690820        0.5653938774
 H          1.1411180550        3.8949028046        0.2276236909
 H          1.8754357695        2.5890342546       -0.1789206409
 O          3.2329093739       -2.1942202689       -2.4325805857
 H          2.3200214926       -2.5023638270       -2.5131150162
 H          3.3884879189       -2.0848715222       -1.4815210206
 O         -2.5435939139        5.0319069690        0.7249760260
 H         -1.6817055632        5.1886314864        0.3131423052
 H         -2.3415752643        4.4935810159        1.5175762227
 O          3.7761776076        1.8017944408        1.9252972133
 H          3.1960873644        2.4096521704        1.4444141726
 H          4.4256759030        1.4981410186        1.2795760441
 O         -3.1615861097       -0.7929256109       -2.9079646235
 H         -2.3837924486       -0.2205796695       -3.0377754037
 H         -3.7381255089       -0.3023924418       -2.2888442344
 O         -4.4598966089        0.7494827571       -1.0917280089
 H         -4.1639319278        0.3824490302       -0.2434834463
 H         -4.3329075415        1.7060103744       -1.0250070282
 O         -2.4716907850       -0.2704718888        3.7627672821
 H         -1.5456915595       -0.0459364021        3.5456650822
 H         -2.4459654304       -1.0605657903        4.3020172401
