  146
       -243.92842342
 H          2.3379562017        0.3893331818        1.1600785120
 C          2.5147273361       -0.6513354112        0.8866490329
 H          3.3526048004       -1.0465933739        1.4636600615
 C          2.8372513945       -0.7485769770       -0.5986412199
 H          2.9846733647       -1.7960210748       -0.8649485902
 H          3.7562781360       -0.1975347182       -0.7906680405
 N          1.7922139764       -0.2070543584       -1.4547433784
 H          0.9255182049       -0.7135328962       -1.2956858464
 H          1.6331259657        0.7631009410       -1.1974960331
 O          1.3281938722       -1.3615370934        1.2135551511
 H          1.3879180754       -2.2552603320        0.7955331446
 O          4.8074833843       -2.4259596970       -2.6574491833
 H          5.3597675972       -2.7269112318       -3.3794304613
 H          4.0874680421       -1.8828770269       -3.0642049823
 O          2.8809533786       -0.9212828532       -3.7266558385
 H          2.1360737110       -1.3165354923       -4.1975217237
 H          2.4545836178       -0.5543227039       -2.8841202187
 O         -3.9824703246       -3.8058064323        2.2450384865
 H         -3.0613894905       -4.0198921725        2.4960454249
 H         -4.5527379923       -4.4731288359        2.6246935726
 O         -1.7387032823       -2.7381169737        0.4982563178
 H         -1.1592042936       -2.7685037136       -0.2743386125
 H         -1.7195609685       -1.8148204854        0.8007323945
 O         -2.1819354248        3.8044877966       -2.5162613246
 H         -2.0044898933        2.9186772226       -2.1754844628
 H         -3.1166538405        3.7808244297       -2.8178366970
 O          1.5204405943       -1.5286353884        3.8946418782
 H          0.6088259988       -1.5954712575        4.2205339765
 H          1.4196194968       -1.4566031745        2.9208691319
 O         -4.7770508614        3.4308930647       -2.9975653401
 H         -4.8856448664        2.5395488626       -3.3687276832
 H         -5.1614350282        3.3897904704       -2.1076761502
 O         -1.3030723279       -4.0040525808        2.7278310005
 H         -1.2270350445       -3.2333207213        3.3253487395
 H         -1.3649613346       -3.5980998138        1.8215500690
 O          2.7975021647        0.8966233795        3.8411158170
 H          2.0504829288        1.4321598502        3.5154779943
 H          2.4008276320        0.0364932369        4.0647840573
 O          0.2304251358       -1.5652045662       -4.1468130714
 H          0.0205276251       -0.6625323263       -3.8113500706
 H         -0.5249532162       -1.8237575956       -4.6791325934
 O         -2.7166567932       -2.6020103940       -2.7660634908
 H         -3.3833247775       -2.8986369243       -2.1301441441
 H         -1.8605184675       -2.7112660017       -2.3295686910
 O          6.1220313267       -1.0802169061       -0.5641552606
 H          5.7105478108       -1.5216298607       -1.3236891565
 H          5.8617615507       -1.5785660607        0.2172215233
 O         -5.8607591990        0.4287957829       -1.1759541861
 H         -5.6729596477        0.4983825227       -2.1318253145
 H         -5.9403502822        1.3414342242       -0.8552794592
 O          0.7476817023        2.3972362131        2.7809109156
 H          1.0573805574        3.3045158980        2.7525747931
 H          0.6669779572        2.1224479428        1.8255658853
 O         -2.1604538832        5.1775558142       -0.1539649213
 H         -2.2292537375        4.9115921812       -1.0926159400
 H         -1.2132964675        5.0889516842        0.0482401481
 O          5.1050369523       -2.7394182206        1.8424085526
 H          5.8966842252       -3.1662350365        2.1746445469
 H          4.3592611583       -3.0890906553        2.4084897865
 O          3.6127068357        1.5109159150       -4.6292946965
 H          3.3929457491        0.5801098582       -4.4120414064
 H          4.4500673361        1.6983252131       -4.2025709799
 O         -1.9317654823        1.3608097285       -0.9124057010
 H         -2.4042417721        0.5186176609       -0.7414875774
 H         -2.4440996066        2.0082632672       -0.3705010451
 O          4.3120450311        3.0788273194        2.6446476365
 H          4.8539174609        2.6152889334        1.9924391610
 H          3.9160400468        2.3919812087        3.1961356669
 O          1.0571165351       -5.1380573711        2.3834315982
 H          0.1734713268       -4.7352518048        2.5871536451
 H          0.9662876387       -6.0811190374        2.5167605411
 O          3.1787269623       -3.6184623700        3.3785311732
 H          2.6573230838       -2.8763503969        3.7398551826
 H          2.5225822551       -4.2310075605        3.0099402214
 O         -3.2587284077        2.9942808971        0.6924933823
 H         -2.8871471601        2.7212448567        1.5463747925
 H         -2.8691437799        3.8873269653        0.4698871209
 O          1.6276523328       -3.7936994098        0.0691232358
 H          1.4056905138       -4.3862699691        0.8059412631
 H          2.5674857494       -3.9804324938       -0.1558593970
 O          0.4410195253        1.8618783015        0.2381542572
 H         -0.4255848829        1.5929715244       -0.1254422494
 H          0.5143773667        2.8172916706        0.0194515732
 O         -6.4745372913       -1.7752453538        0.4384758676
 H         -6.4966910108       -1.0260440161       -0.1752965756
 H         -5.9967263614       -1.4577832391        1.2197450295
 O         -1.1898556956       -0.3319975082        1.5873210741
 H         -1.4747705780        0.5702175184        1.8344475224
 H         -0.2607513237       -0.3029180436        1.3161769674
 O         -5.6817992415        3.0469348319       -0.3723126735
 H         -6.1728277959        3.7475224353        0.0561425453
 H         -4.8027562662        3.0058378349        0.0708896243
 O          3.2305390567        2.5778249654       -0.7701200889
 H          3.9627636328        2.1032814890       -0.3441499339
 H          3.0645706043        3.3518822045       -0.2139618420
 O         -4.3757444305       -1.0745537839        2.2552125494
 H         -4.2075074539       -2.0316273191        2.3102831911
 H         -3.9507380928       -0.7873752096        1.4142464721
 O         -3.5734357152       -0.5930938148       -0.2568025269
 H         -4.3991207713       -0.1814434948       -0.5962440300
 H         -3.6435403797       -1.5394681128       -0.4986089337
 O          0.4751023090        4.4997458259       -0.0833713155
 H          1.3146704829        4.7739984390        0.3067515674
 H          0.5206645576        4.7057416725       -1.0564444401
 O          1.6777932262        2.4850690609       -3.0278910172
 H          2.2101317220        2.5043295475       -2.2108253560
 H          2.3098857298        2.2487001299       -3.7355556217
 O          5.2408350086       -0.0682943307        2.9072614793
 H          5.1650085086       -1.0048158548        2.6795191215
 H          4.4151110019        0.1991387657        3.3430788664
 O         -0.4708923311        0.8417232970       -3.1897797835
 H          0.2931445127        1.4545220782       -3.2015537009
 H         -0.9071891179        0.9807497763       -2.3351184650
 O          5.3119663199        1.3096398522        0.6023644758
 H          5.3200355331        0.8129452090        1.4498738713
 H          5.7872231390        0.7199943242       -0.0009302697
 O          4.2195893924       -4.0558061000       -0.4604536348
 H          4.6099067402       -3.5847621849        0.2954278008
 H          4.4652464799       -3.5632612802       -1.2595314400
 O          0.3907303275        4.8411973182       -2.6787640680
 H         -0.5417841920        4.6240783629       -2.8317490944
 H          0.8903061834        4.0544296948       -2.9689364387
 O         -1.1934741777       -1.5939032791        3.9389636734
 H         -1.8952740800       -1.1383231410        4.4204206136
 H         -1.1897789792       -1.1562285837        3.0529753980
 O         -4.3818310726       -3.1501369763       -0.5814107894
 H         -3.9735747403       -3.5114070473        0.2169776324
 H         -5.2644761744       -2.8248097630       -0.3034614342
 O         -5.1047592511        0.7893765436       -3.7549119016
 H         -5.6510692849        0.5567680776       -4.5052320606
 H         -4.2112765804        0.3811853660       -3.9300680800
 O         -1.9359088524        1.9476124649        2.8178520260
 H         -1.0244221956        2.1737606215        3.0757254614
 H         -2.3450279728        1.4181525782        3.5244752022
 O         -2.7987129930       -0.3364528267       -4.2268769411
 H         -2.7957322628       -1.1620958861       -3.6986078033
 H         -2.0344472826        0.1858678723       -3.9433024299
 O         -3.3090796821        0.1376731102        4.3422539414
 H         -3.7244895187       -0.2934332445        3.5471277770
 H         -4.0333364583        0.4089307598        4.9052321117
 O         -0.1076505000       -2.6318892824       -1.6903544344
 H          0.1727664810       -2.3734641460       -2.5900231264
 H          0.5936055888       -3.1706543021       -1.2921083511
 O          2.9646107013        4.7134543903        1.0834458568
 H          3.5509242620        5.4571081020        0.9434267934
 H          3.4161341409        4.1311448670        1.7437785138
