  536
       -906.12859924
 H         -2.2853296151        1.0250634139        0.9337467349
 C         -1.3739852993        0.8228591867        0.3641881377
 H         -0.8470293707        1.7525580171        0.1545600453
 C         -1.7509799241        0.1534323176       -0.9451704182
 H         -0.8517373931       -0.2504221494       -1.4081678127
 H         -2.1737743418        0.8980809211       -1.6120157042
 N         -2.7162506093       -0.9338341542       -0.7825444483
 H         -2.4323593234       -1.5119378218        0.0022571384
 H         -3.6231352425       -0.5496201252       -0.5466362778
 O         -0.5171640926        0.0116681440        1.1717285845
 H         -0.3795473118       -0.8545823480        0.7534194367
 O          2.0871464585        0.9312817100       -0.6728821544
 H          1.5128416422        0.3883122577       -1.2311993422
 H          2.9692419853        0.8956455744       -1.0706039347
 O          3.6128939758       -1.5738450779       -1.5610652129
 H          4.0402501394       -0.7175646355       -1.6979279793
 H          3.3744316868       -1.6214346265       -0.6049986548
 O          1.0248090441       -1.0842994719       -2.1747000355
 H          0.6763277250       -1.1526945911       -3.0720216887
 H          1.9743178228       -1.3150787423       -2.2260931242
 O          0.7010810222        1.7106686367       -3.0166406499
 H          0.2499081388        2.1044716398       -2.2403229965
 H          0.8692105043        2.4961920803       -3.5751796174
 O          1.9632312411        3.5162073890        6.9032810324
 H          1.2324329941        2.9238311098        7.1495928196
 H          1.5561057024        4.3741596554        6.6567029903
 O          2.7814730114       -1.7228064578        0.9589135040
 H          3.1903254201       -2.3907765437        1.5215293983
 H          1.8588017437       -1.9917650192        0.8035155200
 O         -1.6003042121       -1.5131793415        5.5240131426
 H         -1.4552220984       -0.6790296208        5.0539421618
 H         -2.2629957420       -1.3546065263        6.2246059593
 O         -0.3716791446        2.7045555646        4.5617097371
 H         -0.8895038483        3.4857820317        4.8650251070
 H          0.4985036502        3.0044521576        4.2497430580
 O         -2.0374372565        3.3130499184        2.1641161689
 H         -2.4313175325        3.3777887020        1.2714996329
 H         -1.0761272044        3.1715901103        2.0414418286
 O          0.1118281901       -2.5534728941        3.0626461703
 H         -0.3931550944       -3.0598262970        3.7230162884
 H          0.8130010029       -3.1693442264        2.7574480965
 O          0.0377069700       -7.5644255673        1.4858656401
 H          0.8439298100       -7.6726309876        0.9625314390
 H         -0.6979785372       -7.6820773811        0.8829534002
 O          1.8586406259       -0.2542277046       -5.7950903925
 H          1.6605105902        0.6220921024       -6.1670922124
 H          2.3792295629       -0.0603704736       -4.9845778709
 O         -1.4298767087        0.7775137354       -4.3121845932
 H         -0.5719191991        0.9192087951       -3.8682410474
 H         -1.7459707339        1.6773082901       -4.4967141189
 O          6.1870699224        2.9898354797        0.3879216180
 H          6.7054851940        2.5123589399       -0.2740982667
 H          6.2729365453        2.4992562560        1.2199370283
 O          2.2677580811        7.1171461042       -1.0794375932
 H          2.4379600715        7.0270528007       -0.1342706336
 H          1.3569182197        6.8144933373       -1.2228976615
 O         -6.3081034969        2.2974263100       -4.3931232410
 H         -5.6397374368        2.6307755392       -5.0102026859
 H         -6.4408203905        1.3635309425       -4.6167977119
 O         -2.6624759781       -1.6430471699       -3.3064122049
 H         -1.8518692941       -1.2548156928       -3.6654736389
 H         -2.6500971199       -1.5378560678       -2.3147724709
 O         -8.5202540993        3.7875416930       -4.1086932506
 H         -7.7206094116        3.2225645449       -4.2057116932
 H         -9.2668164301        3.1874236533       -4.0375756486
 O         -1.5005647413       -4.3801465334        4.3489048295
 H         -2.3488992512       -4.5950823904        3.9116443562
 H         -1.7531706024       -4.2188387569        5.2752166487
 O         -1.9966823406        3.3093363844       -5.0043967828
 H         -1.3436593642        3.5960054508       -5.6845930721
 H         -2.1911214679        4.0742715249       -4.4329736678
 O          2.0469677759        3.5266980369       -0.3412301037
 H          1.9932443556        2.5605645469       -0.5253313247
 H          2.8195254085        3.6431114553        0.2422072073
 O         -1.9019175594       -0.1252169574       -6.7459955522
 H         -1.5946990769        0.1228476781       -5.8352952069
 H         -1.5964572620       -1.0202236663       -6.9209201620
 O         -3.4349303121       -2.1375550926        3.6940203703
 H         -4.0922969056       -2.7171510767        4.1074528479
 H         -2.7258885799       -2.0077137498        4.3595878063
 O         -1.3851559817        0.4979144067        3.6386424683
 H         -1.1551944470        0.2763556246        2.7137715427
 H         -1.1411523397        1.4369047645        3.7801414928
 O          4.4491611633        0.5775494188        1.1990797210
 H          3.5044196769        0.4229863780        1.3957632678
 H          4.9496832293       -0.0892837951        1.6793169146
 O          0.3043604925       -2.3807648123        0.0033925060
 H          0.3872900245       -3.3465811336       -0.1057863593
 H          0.5442766196       -1.9795790591       -0.8564535014
 O         -0.1009727946        5.9360825790       -1.9403735494
 H         -0.0827385957        6.1393481515       -2.8820962749
 H         -0.9903669433        6.1504244555       -1.6174066268
 O         -5.7659601243       -1.6430380483       -2.5413816580
 H         -5.3287405653       -2.4855361237       -2.2972826260
 H         -5.7900376944       -1.1510343721       -1.6991479074
 O         -4.1464766079        0.5533022159       -3.5949082020
 H         -4.2577005162        0.5764056181       -4.5628473509
 H         -3.6154107143       -0.2537288606       -3.4286728119
 O          1.9439353135        0.8721291864        2.1249954599
 H          1.4282993834        0.4746065865        1.4104664555
 H          1.7490896750        0.3552539929        2.9344233788
 O          5.2365164676        3.4590314586       -2.3058119944
 H          5.6328040387        3.6309868793       -3.1693095889
 H          4.4239787947        4.0012689121       -2.2549646050
 O         -2.0025086807       -2.7170355763        1.5620320520
 H         -1.0819626287       -2.5600702047        1.8779088226
 H         -2.5353026739       -2.4987448901        2.3598589351
 O         -1.8299719086       -5.3655249654        1.3591636499
 H         -1.9373373636       -4.3924654149        1.4779655247
 H         -1.8391547077       -5.7559606986        2.2339123427
 O         -5.8343399281        1.4828243076       -1.6474089418
 H         -5.2413330405        1.0841642688       -2.3077844590
 H         -5.7836283016        2.4413916223       -1.7844561125
 O         -0.3958134434       -3.7874033382       -3.1956300196
 H          0.4621812108       -4.0469144755       -2.8093253557
 H         -0.2389247049       -2.9435322953       -3.6656819872
 O          4.2163448837        1.3179464126        4.1532886277
 H          3.8505826473        0.4242227557        4.0305111228
 H          4.3522798479        1.4254456965        5.1162503101
 O          8.3651254560       -2.9978770554        0.4155549811
 H          7.3926372780       -3.0146655962        0.4563852328
 H          8.5999322109       -3.3947795587       -0.4270370958
 O          4.1602922018       -3.6582630702        2.5404480424
 H          3.2728203489       -4.0663516308        2.5215175586
 H          4.4836813526       -3.7865307301        3.4490098213
 O         10.9755804603       -2.2436909957       -1.4413508303
 H         10.3142003161       -2.9088111423       -1.6812063864
 H         11.1055779912       -2.2980393181       -0.4799426736
 O          3.6315080301       -4.5617678772       -0.1614183368
 H          3.4328289848       -4.9867908476        0.6874821389
 H          4.3233802892       -3.8856962101       -0.0140589167
 O          3.1165494094        0.7230769178       -3.6203991782
 H          3.5222392935        1.4488768555       -4.1410487929
 H          2.2675762899        1.0604793586       -3.2778139151
 O         -1.3102210611       -5.2829471839       -5.2130837361
 H         -0.5672941410       -5.8673444993       -5.3928382407
 H         -1.0255998580       -4.7649394888       -4.4223260169
 O          2.2078579627       -7.7126473983       -0.3533673504
 H          3.0699102689       -7.6255741028       -0.7879185032
 H          1.5690896261       -7.4649283767       -1.0411519035
 O         -4.3341654629        3.1892305202       -6.1651882660
 H         -4.7006803649        4.0581668312       -5.9627254473
 H         -3.4512034992        3.1741852972       -5.7049062686
 O         -4.7960565882       -3.8718902671       -1.4832295637
 H         -3.8263154728       -3.9376494559       -1.5450253146
 H         -5.2012872239       -4.6721990790       -1.8741642030
 O         -4.2297461847       -0.1291900825        1.9012097959
 H         -4.9100135026        0.4120864763        2.3457274949
 H         -3.9640915688       -0.7979361572        2.5486854387
 O          7.7837058633       -0.1410544886        1.1246124155
 H          8.0281981238       -0.8156738258        1.7807445216
 H          7.2164300820        0.4869169921        1.6173847122
 O          0.5845529267        3.1417285078        1.8327299536
 H          0.9182791196        3.4085264718        0.9507261162
 H          1.0633304270        2.3099616159        2.0421409602
 O         -2.1207436858       -3.8809128527       -1.2267265686
 H         -1.5250354605       -3.7326617867       -1.9948195470
 H         -1.7487612703       -3.3935920295       -0.4854109984
 O          1.0671957648       -0.4029523488        4.2667967402
 H          0.2209552117        0.0717327030        4.2387742254
 H          0.8529922719       -1.2875057653        3.8952298440
 O         -2.2127618002        2.3329720379       -8.0880598846
 H         -3.0417887464        2.6215051251       -7.6909460980
 H         -2.0131596458        1.4572415743       -7.7198217408
 O          3.5501382523       -1.2724318422        4.0380281911
 H          2.9459700465       -2.0382854145        4.1610572612
 H          4.2397190452       -1.5452743112        3.4043695326
 O          1.6684124634       -4.4832045387        2.1357624581
 H          1.3242289936       -4.7644284377        1.2677451641
 H          1.3465001380       -5.1432539047        2.7844687182
 O          3.1029269033       -5.9825732343        4.5686340426
 H          3.3612818452       -6.1847528269        3.6522115828
 H          2.1929273872       -6.3032088335        4.6336204770
 O         -4.0228685731        3.3086876677        3.9910604452
 H         -4.7925316226        3.8185356234        3.7069857550
 H         -3.3644971689        3.3145635644        3.2784803031
 O         -1.0216528344       -3.0184383275       -6.6821889566
 H         -1.3103114132       -3.8582987448       -6.2733233480
 H         -0.0760342898       -3.1728690570       -6.8547379156
 O          1.3096268563       -5.9724574659       -4.8176727090
 H          2.2287363756       -6.1385543350       -4.5634007733
 H          1.3675161620       -5.1610285305       -5.3626495348
 O         -3.8634115080       -5.0584991406        3.2073267545
 H         -4.5217711151       -5.0446237309        3.9032230591
 H         -4.2361114666       -4.5581384347        2.4536638339
 O          3.7522246350        3.1946682387        1.7883791603
 H          4.0558479194        2.2851638699        1.6282973376
 H          3.0346983123        3.1444492336        2.4259537691
 O          5.1376933347       -3.5687497834       -2.4363418784
 H          4.6080104040       -2.7954524001       -2.1378330407
 H          4.5377235545       -4.1599360391       -2.9152699698
 O          1.7928664793        2.4357730101       -6.3674111004
 H          2.7469486229        2.4475622040       -6.4989426672
 H          1.6583978622        2.9708237638       -5.5578298168
 O          0.4732108746       -6.1752634417        3.8293242064
 H         -0.2742039683       -5.6030304566        4.0942175831
 H          0.1816137625       -6.7752455002        3.1260006862
 O          0.6515687544       -2.5834915448        6.7282774408
 H          1.1437096665       -1.7792126365        6.9551912177
 H         -0.1805516262       -2.2849555270        6.3236304421
 O         -0.0097090794        1.5884346002        6.9372931664
 H         -0.9176669945        1.4583401710        7.2599201146
 H         -0.1295126254        1.9242530281        6.0179229432
 O         -5.9223316015       -1.0732258891        0.0441740250
 H         -5.3428994127       -0.6786269234        0.7313967269
 H         -6.0342680136       -2.0105512014        0.2665104519
 O         -2.7187951842        1.3799785350        7.2239065670
 H         -3.0688255456        2.2555406604        7.4289907351
 H         -3.0201000402        1.2182113087        6.2969339589
 O         -3.6383472434       -1.1850078109        7.2618973506
 H         -4.4333232549       -1.0823622290        6.7240877521
 H         -3.3849794574       -0.2915471783        7.5498295425
 O         -0.4146248313        4.0276542507       -7.0069577528
 H          0.4135047914        3.5222510309       -6.9655676019
 H         -0.9932189631        3.5186243342       -7.6094252864
 O          4.9784095449       -1.1668961845       -4.1865356641
 H          5.9130902782       -0.9684821094       -4.0604060621
 H          4.4663367350       -0.4012010010       -3.8815494866
 O         -4.6158079014       -3.4430404226        1.1481581981
 H         -3.7443496558       -3.0400230801        1.0781977011
 H         -4.8208908459       -3.7391783278        0.2364428010
 O          4.0307482319        1.6586909804        6.7983235752
 H          3.3783320073        0.9288774237        6.8798015356
 H          3.5212651569        2.4593119273        6.9862858526
 O          5.6292006945       -2.7539754021        0.2477811631
 H          5.9047607486       -2.1103042953       -0.4399468984
 H          5.4522723849       -2.2499903625        1.0508528705
 O          4.7407642479       -1.6738158112        6.3182490701
 H          4.2255980462       -1.4508354334        5.4937362456
 H          4.2060780644       -1.3535695326        7.0459187342
 O         -4.1265858251       -6.3727585453        0.2962507158
 H         -3.3769464920       -5.9822033534        0.7808960007
 H         -3.7367609780       -6.6868760775       -0.5299269814
 O          6.7898462128       -0.4237923689        5.0399322717
 H          7.6038750004       -0.9303385995        4.9709462317
 H          6.1758457899       -0.9080728173        5.6256413095
 O         -7.2220238870       -3.5008976664        0.2944921996
 H         -7.6867077264       -3.8560810961       -0.4912898108
 H         -6.8513098216       -4.2864505771        0.7332213599
 O          0.3903604566       -6.7132928381       -2.2419104817
 H          0.6123236139       -6.4713757336       -3.1552101118
 H         -0.5847676213       -6.7898854571       -2.1843640694
 O         -7.9175703710        1.7549632036        0.3122858157
 H         -8.0957732281        0.8093788081        0.2094255988
 H         -8.6159345995        2.2224796615       -0.1825741402
 O         -2.7404051162        5.9367661329       -1.2218019832
 H         -2.8455026961        5.0776560579       -0.7516167427
 H         -3.4999582035        6.4542174085       -0.9233674348
 O         -8.4500338078       -4.6883577274       -1.7555498630
 H         -7.7587423427       -5.3003903782       -2.0440127170
 H         -8.4686156523       -3.9806603414       -2.4207696553
 O          7.7686058055        1.7630626660       -1.5097551669
 H          8.3103192288        2.5838058538       -1.5325444225
 H          8.4301971242        1.0508717904       -1.4861891110
 O          4.3529377008        2.4373114027       -5.2153764141
 H          5.2603371412        2.2450798460       -4.9355819335
 H          4.2495912949        3.4144518635       -5.1677780788
 O          4.8113156555        0.9356945541       -1.3844092106
 H          4.8015307493        0.9853857419       -0.4041442173
 H          4.9937800846        1.8377566831       -1.7152922904
 O         -5.5487315079        5.1407962974       -4.4492174386
 H         -5.6651513264        4.7628056477       -3.5489233187
 H         -6.4377816034        5.3167433796       -4.7602234346
 O         -0.7055237611        3.2853940971       -1.4391287980
 H         -1.5234352130        3.2644847680       -1.9504657311
 H         -0.3282985390        4.1747183266       -1.5388264970
 O          2.3058520285        3.1523106914        4.2793935124
 H          2.2261519247        3.2467347351        5.2532197325
 H          2.9511047790        2.4226742625        4.1526742222
 O         -5.3739867638       -3.5189394937        5.1991727843
 H         -5.6169496533       -2.6108952761        5.4489359416
 H         -6.1744378314       -3.9038458022        4.8093335792
 O          5.2110583191       -4.3745901268       -5.6785821931
 H          4.7701572204       -3.6074260892       -6.0780364206
 H          6.0362973578       -4.0451473197       -5.2914508068
 O        -11.1986407845       -0.2958501474       -0.7585740664
 H        -10.2433800335       -0.4067948730       -0.6109324199
 H        -11.5440494347       -1.1932516784       -0.7432050245
 O         -5.7382616832        3.1224142376        0.9717695431
 H         -6.3084968509        3.9146378035        0.9869867177
 H         -6.2084935460        2.4708382367        0.4227756300
 O        -10.5278337815        1.5537278369       -2.7760831544
 H        -11.0281297744        0.8694301923       -2.3088657110
 H         -9.6095455780        1.2147849647       -2.8175726976
 O          4.4872949087        5.0754063474        0.0122747723
 H          5.0539790461        5.8078857620       -0.2321273500
 H          5.0623346344        4.3079544222        0.2002812603
 O         -6.2156814412        1.3397677193        2.9832384141
 H         -6.0584599479        2.0778016442        2.3668946906
 H         -6.0579791384        1.6816548420        3.8774562318
 O         -2.0305970531        5.7766308208        3.0925968175
 H         -1.0935470097        6.0224948403        3.0097105158
 H         -2.0699578130        4.8685467749        2.7025919612
 O          5.8458652000       -1.4284236387        2.6956311053
 H          6.3040820598       -2.2753916925        2.8788178135
 H          6.1912059029       -0.8173565435        3.3734384819
 O          2.9518621470        4.8975075647       -2.3787170291
 H          2.5604119006        4.3562347833       -1.6442813605
 H          2.8748356149        5.8070913406       -2.0150453512
 O          3.5822143919       -6.4824313949        1.8656834632
 H          3.1723126985       -7.1074954450        1.2553449223
 H          4.5453048316       -6.5074683834        1.7485630716
 O          8.8318106067       -1.5130861077        3.3555510506
 H          9.6813427358       -1.6624471501        2.9079398308
 H          8.3990408810       -2.3830727001        3.3808284093
 O         -4.4664317341        0.4080048186       -6.2934617563
 H         -4.5313469226        1.3444394437       -6.5180218656
 H         -3.5597298284        0.1261936606       -6.5469130820
 O          0.7919379376        5.6099040064        5.7101915903
 H          0.8173068164        5.6279100800        4.7299735494
 H         -0.1427453044        5.4678801220        5.9141577629
 O          2.0445975216       -4.2637477222       -2.2305503782
 H          2.4762673621       -4.9491236340       -2.7600324110
 H          2.4966869325       -4.2667679879       -1.3636777562
 O          6.7898607198        5.0165789999       -4.1996312821
 H          6.9794474319        5.4415542814       -3.3514780564
 H          7.6217292157        4.6312816291       -4.5083359478
 O         -1.8058583203        4.7034991081        5.5381737733
 H         -2.6257881227        4.3487822927        5.9205421447
 H         -2.0535104578        5.1783024219        4.7160449539
 O          7.8586672308        3.4087028312        4.0305736131
 H          7.5440434344        3.1304923233        4.9133733119
 H          7.1705443547        4.0211793147        3.6988697195
 O         10.1365879669        1.0340974465        1.1054797316
 H         10.2518113637        1.1129265058        2.0738059995
 H          9.2191182481        0.6804327032        1.0015741557
 O          6.7755267481       -0.8880451647       -1.2805899249
 H          7.2847982706       -0.6310811267       -0.4894128822
 H          6.1254997876       -0.1657087108       -1.4116803564
 O         10.6163149882       -1.7624291387        1.2750914460
 H         10.5852888498       -0.8043461489        1.1186439450
 H          9.7662857662       -2.1362568341        0.9723417903
 O          7.0310083350        5.3635059888       -1.4855627319
 H          7.1266198388        5.5983712381       -0.5321360917
 H          6.4039130904        4.6130179614       -1.5184558543
 O          9.0344015796       -4.1692683620       -2.1965954552
 H          8.4137908633       -3.8518427812       -2.9174637447
 H          9.6320502048       -4.7874117401       -2.6170044437
 O         -8.1385478978       -2.4785014365       -3.3119102807
 H         -8.4852660513       -1.8140833518       -3.9077493835
 H         -7.2870839495       -2.1201960974       -2.9447999803
 O          4.1723932481        5.0762754714       -4.9404011145
 H          5.1166766831        5.2664429509       -4.8318492169
 H          3.7566626032        5.2453529232       -4.0856358904
 O          1.6114160716       -3.6660025297       -6.2560848830
 H          2.3460794175       -3.5915124557       -6.8686780180
 H          1.8993598957       -3.1332302441       -5.4679801414
 O         -6.6210388544       -4.2425031729       -4.7690940283
 H         -7.2286058578       -3.5898083819       -4.3806173342
 H         -5.7626798739       -3.8000438445       -4.8665732002
 O         -4.4853061061        6.5443271490        2.2759761907
 H         -5.0347311648        6.0500521889        2.8946367813
 H         -3.5607950448        6.3818232212        2.5389099791
 O          7.2856437100       -3.4008713332       -3.9797527998
 H          7.5180603563       -2.4603943144       -4.1136515528
 H          6.4845793926       -3.3813758020       -3.4048646292
 O         -0.1473264669       -1.5519493147       -4.6340951321
 H         -0.5681837614       -2.0423048762       -5.3674776742
 H          0.6126563127       -1.0898585906       -5.0610914131
 O          9.7226802214        1.2139002844        3.7372087056
 H          9.1554946076        1.9486002988        3.9995882452
 H          9.2239560818        0.3986155469        3.8644096867
 O          8.9987821910        3.2416847143       -4.3106207835
 H          9.2517876783        3.4974219625       -3.4130215852
 H          8.1533032628        2.7499872739       -4.2420536316
 O         -5.7709712345       -0.7845087322        5.1874589272
 H         -5.0364189288       -0.1496284336        5.0320037561
 H         -5.9840087231       -1.0958483749        4.2788623186
 O         -8.3764627015        0.3437980993        5.2601108219
 H         -7.5072543001       -0.0800360281        5.3338375629
 H         -8.6599523078        0.1680824205        4.3441751538
 O         -6.2815389372       -1.9503585540        2.8324194484
 H         -5.6135857215       -2.3768098646        2.2728092049
 H         -6.8641028534       -2.6657915836        3.1165747183
 O         -4.0692556902        3.7798887095        6.8660264482
 H         -4.5587005604        4.5328519002        7.1946374700
 H         -4.6724363472        3.2941359948        6.2644556591
 O         -5.9741182996        2.2662225329        5.6508934975
 H         -6.1549430966        1.4903306813        6.1847265936
 H         -6.8492831801        2.6856212416        5.4783987112
 O         -8.6687649935       -0.0395367420        2.5554387417
 H         -7.7398461476        0.2446326254        2.5221486524
 H         -8.6883745504       -1.0030395477        2.4037894417
 O         -7.6241325268        5.0792700728        1.0579400859
 H         -7.8801100473        5.2009029460        0.1348046091
 H         -8.3060899957        4.5042057947        1.4559487072
 O          2.0441821949       -0.1585657973        6.7276797641
 H          1.8766879476       -0.2956402130        5.7680430650
 H          1.3176038852        0.4369196268        6.9945707654
 O          5.1199730803       -4.1035035238        5.0807327266
 H          4.5189848545       -4.8397383714        5.2510977455
 H          4.9191122146       -3.3839970310        5.7029874403
 O         -5.2246226663        6.3330669988       -0.2337929680
 H         -6.0369572045        6.8386921462       -0.2460856063
 H         -4.9263134235        6.3450483390        0.7110645894
 O         -8.0356085058        0.5827367728       -2.7175950232
 H         -7.6911394186        0.2402932761       -3.5510261848
 H         -7.2515707451        1.0125951655       -2.2710262408
 O          2.1458798181       -3.3844859414        4.6899029551
 H          1.5861856482       -3.1988463518        5.4731326641
 H          2.4518817180       -4.2998754163        4.7574672014
 O        -10.2987457197       -2.9576784636       -0.3957643774
 H         -9.5630515948       -2.3322417787       -0.5311645685
 H        -10.0213129592       -3.7720796043       -0.8244513163
 O         -8.5037648288       -0.8350494366       -0.5431137884
 H         -8.3580848399       -0.4618346741       -1.4381581741
 H         -7.6006378085       -1.0199702146       -0.2087279382
 O         -6.1054700803       -5.8502822075       -2.7508388488
 H         -6.3346713079       -5.3238935797       -3.5615043146
 H         -5.4127037258       -6.4478190202       -3.0463233587
 O         -6.4806670358       -5.8624971694        1.4053193895
 H         -7.0329579068       -6.5651269989        1.0629994377
 H         -5.5788721816       -6.0350025392        1.0502637284
 O          6.7639754658        2.1121685790        6.1080562559
 H          6.8305589619        1.2187160571        5.7288917323
 H          5.9066190787        2.1392309869        6.5471481153
 O          6.4974648965        1.5480138604        2.7034006915
 H          5.6668194364        1.4877579500        3.2131910978
 H          7.0727960164        2.1734266383        3.1852533008
 O          7.3732318638        5.6999146418        1.0980349325
 H          6.6985766864        5.3961227140        1.7321823353
 H          8.0888209025        5.0526097422        1.1673425864
 O         -2.9789182936       -3.9647662297        6.5863718396
 H         -2.9537895474       -3.2051251944        7.1745988883
 H         -3.8655367989       -3.9650605723        6.1998612185
 O         -9.0236219234       -2.7332165879        2.0715389151
 H         -9.8368441387       -2.8103258929        1.5576409790
 H         -8.3114162233       -2.9126621749        1.4090070971
 O          3.4980600355        5.6102712439        4.3062002406
 H          3.0280028242        6.0790081609        4.9975933019
 H          3.0378718001        4.7488711831        4.2140733814
 O         -0.3990019854        6.0099006953       -4.9092334704
 H         -0.3707391815        5.7360385621       -5.8342004722
 H         -1.3360646119        6.0078049080       -4.6497219660
 O         -3.2690090125        2.8488401258       -2.6276777305
 H         -3.4836519384        1.9839507490       -3.0441317435
 H         -4.0065469566        3.4307624744       -2.8286242343
 O        -10.8402511937        1.3010816380        1.4681391326
 H        -10.1206401950        0.7832706832        1.8781386026
 H        -11.2534297568        0.7050142477        0.8262771211
 O          9.9839836047        0.2149363541       -1.5422121533
 H         10.4062046798        0.6459973928       -0.7910611981
 H         10.3466784241       -0.7000868339       -1.5734354209
 O          0.3893863812       -5.0462623078       -0.1152865403
 H         -0.4207580330       -5.3407450657        0.3405372658
 H          0.4941522073       -5.5905262041       -0.9169051686
 O          3.8056943981       -5.6009871881       -3.8157212072
 H          4.2841266953       -6.2297012482       -3.2518175916
 H          4.3728545266       -5.2928449072       -4.5615405223
 O          0.6580543127        5.5553894656        2.9954324228
 H          1.3700769805        5.9791685219        2.4796481911
 H          0.6321585931        4.6370583289        2.6590178927
 O         -3.7090252709        0.8497242981        4.8162333833
 H         -3.9538964958        1.7664391378        4.5512413159
 H         -2.9766142205        0.6025666877        4.2191114021
 O          5.6886976965        4.6480764959        2.9870575611
 H          5.1209691725        5.1537579726        3.5825851344
 H          5.0713000088        4.0823924393        2.4719809226
 O          2.5086885719       -2.4480205751       -4.1109056064
 H          3.4256218682       -2.1503399165       -4.1275950229
 H          2.4054041338       -3.0541300532       -3.3559945044
 O          2.8641604007        6.3643784433        1.6943968843
 H          3.2924088033        6.3414470961        2.5622749782
 H          3.4021104122        5.7704233081        1.1281612943
 O         -6.3371167166        4.8076229823        3.5593658800
 H         -6.9981720691        4.4959484829        4.1851919745
 H         -6.8094102516        4.9999343262        2.7386083786
 O          7.7123701617       -0.7730896256       -3.8151294212
 H          8.5926328918       -0.3688030530       -4.0197306845
 H          7.6203900835       -0.8059392686       -2.8395126894
 O         -3.3678790165        3.6116582443       -0.0753441735
 H         -4.2591673114        3.4573226246        0.3086343132
 H         -3.3251931174        3.0988387399       -0.9013041657
 O          9.2386207227        3.9629939184       -1.5628963063
 H          8.4790858484        4.6014214259       -1.5831633183
 H          9.5970218584        4.0271622371       -0.6719135431
 O         -8.3864620573        3.0482865720        4.9964115009
 H         -8.6180602075        2.1267003442        5.2283510731
 H         -8.5957205397        3.1085946074        4.0424074604
 O         -5.7548383996        4.2555232834       -1.9045470843
 H         -6.7238366563        4.3545079829       -1.7934320253
 H         -5.3838384938        4.9111240261       -1.2822961529
 O         -2.2584216646       -6.5106609995       -1.7665273785
 H         -2.1544513909       -5.6015682723       -1.4186134675
 H         -2.7722526241       -6.3934699085       -2.5913794524
 O         -4.0269262161       -3.3147385202       -4.7903310974
 H         -3.5582298907       -2.6991603151       -4.1800296399
 H         -3.5771481953       -3.2459644944       -5.6331448824
 O          6.7533164209        1.7688927366       -3.9787253338
 H          7.0252347608        0.8775968106       -4.2447397305
 H          6.9188267792        1.7974706022       -3.0087109932
 O          3.9804808730       -1.9794915425       -6.5900734368
 H          3.1652424588       -1.4544518892       -6.5614297437
 H          4.5165000537       -1.5963009718       -5.8752635494
 O         -6.6055550911       -0.4619410866       -4.8415242247
 H         -6.0761243935       -0.8674904814       -4.1270873495
 H         -6.0033938753       -0.3895714676       -5.5942254078
 O          1.2628272819        3.9746368298       -4.2246525268
 H          1.9119181289        4.3508069417       -3.5941296082
 H          0.6735881671        4.7074258124       -4.4733130405
 O         -8.9362965454        3.1293315404        2.3587202528
 H         -9.8512887476        2.8390380605        2.2865791120
 H         -8.4298378483        2.4889169221        1.8065694462
 O         -8.3661174370        4.7665365522       -1.6350980714
 H         -8.4892353057        4.5925711508       -2.5939617805
 H         -9.0526763103        4.2238475177       -1.2121155603
 O        -10.1181964253        2.9968765291       -0.5883094314
 H        -10.3999324837        2.5542781492       -1.4206973329
 H        -10.5738910532        2.5388894466        0.1396332937
 O          4.5408820021       -6.7327025726       -1.4717732863
 H          4.1771578262       -5.9236830751       -1.0427495178
 H          5.4922512657       -6.6527671042       -1.3265343647
 O          9.9137345905        0.6063954032       -4.2379578107
 H          9.7558502306        1.5411720463       -4.4565638752
 H         10.1920409338        0.5886269387       -3.3073618222
 O         -7.4351492542       -4.3925514926        3.5839326450
 H         -8.2580656228       -4.0130571146        3.2363972139
 H         -7.0946859338       -4.9900805617        2.8988234711
 O          6.0887132727       -5.3812643196        1.6130528895
 H          5.4225986618       -4.6804475260        1.7577654085
 H          6.3845626766       -5.3016699341        0.6878024550
 O         -3.6137939521       -5.9121960893       -4.0003174578
 H         -2.8501148683       -5.9855933820       -4.5955098554
 H         -3.9028312866       -4.9906427903       -4.1409398389
 O          6.7453667729       -5.2329453556       -1.0244550869
 H          6.1642033848       -4.5470887500       -1.4136998485
 H          7.6360058240       -5.0292649797       -1.3372788644
 O         -2.8745976377        5.5924310546       -3.8602282900
 H         -3.7994186590        5.6489029871       -4.1330994630
 H         -2.8524034265        5.7224827326       -2.8852728111
 O          9.2829985105        3.6480969701        1.3611967755
 H          9.1029553672        3.6497055776        2.3069011365
 H          9.6405678568        2.7627395160        1.1656565040
 O          7.1943434954       -3.6752602300        3.3861751140
 H          6.6388101797       -3.9343597478        4.1375577373
 H          7.0630960516       -4.3745591870        2.7157505760
