  609
      -1033.88937213
 O          6.1284076454       -0.1673480644        0.6034917054
 H          6.8312487342       -0.7410919622        0.2495546066
 H          5.4671057873       -0.7905124016        0.9862680130
 O          1.7779294132        2.2089189700       -1.9933300844
 H          2.4647128264        1.8494135753       -2.5667986547
 H          1.6934363557        3.1331449301       -2.2833365448
 O         -1.2987017585        0.3709801467       -4.2431982034
 H         -0.9656926541       -0.0124584450       -5.0710806255
 H         -2.2602674424        0.2457254291       -4.2665288348
 O          2.9068628136        3.3799352794       -5.7472576217
 H          2.2076627787        2.9097132930       -5.2355177474
 H          3.3789978588        2.6885305940       -6.2408723858
 O          1.8499405200        1.1565812607        0.5711933476
 H          1.8511003692        1.5968517610       -0.2969960941
 H          2.6702070312        1.4248251329        1.0253048537
 O          2.3118069133        2.8629625385        3.7182561511
 H          1.6451556882        3.5640768822        3.5783790231
 H          2.7292039111        3.0585595632        4.5781271059
 O         -2.9381242306       -3.2759075186        4.8424545924
 H         -3.6586478455       -3.8368674608        4.5058752193
 H         -3.1871287678       -3.0828556467        5.7656284480
 O         -1.1904708577       -1.9920756665       -0.3489521728
 H         -1.0743023855       -2.2189206623        0.5921533033
 H         -2.1626565172       -1.9726117758       -0.4785673223
 O          4.6122848381        4.6334375288        1.9008761016
 H          4.3959091881        4.2045644113        1.0445135827
 H          5.5797380036        4.6575284148        1.9810937147
 O         -0.3686275439       -1.9360450771        4.5475896701
 H          0.1604321095       -1.2027263998        4.8792260340
 H         -0.6448057234       -2.4530937331        5.3255258271
 O         -1.1087481767        7.1625713452       -3.0754768401
 H         -0.9978278969        6.3575411974       -2.5240472106
 H         -0.9549792936        7.8975408311       -2.4770054371
 O          2.2842182734       -0.4497039516       -1.8000530433
 H          2.2719045287       -0.3762090888       -2.7716714646
 H          2.1023629201       -1.3792483603       -1.5741734802
 O         -0.5800776911        4.9707466829       -1.5352453482
 H         -1.2265120594        4.7047196816       -0.8370275801
 H         -0.7491501243        4.3709919968       -2.2964841719
 O          3.8587778824        0.0441186456        3.9981316714
 H          4.0486708252        0.5650342006        3.1943982999
 H          2.9124375398        0.1986640423        4.2098188148
 O          0.2062659391       -0.2356258769        2.2813699214
 H          0.4274271207       -0.0084028565        3.1940623133
 H          0.5970140613        0.4742590280        1.7454101329
 O         -0.3602179470        2.5581391696        1.9512646196
 H          0.4564134209        2.9535018806        1.6190996009
 H         -1.0624068534        3.0955976274        1.5470373688
 O         -1.1467784136        3.4435263089       -3.6038384442
 H         -1.2576474904        4.0151936117       -4.3895889305
 H         -0.4287861346        2.8262198288       -3.8625155576
 O          0.3143449663       -4.2341667171        0.4384346407
 H          0.8421740734       -5.0375159675        0.3301294020
 H          0.5004757488       -3.9151725296        1.3463013103
 O         -3.6567015553        4.9244002449       -2.0052545344
 H         -4.6163814597        4.9059497694       -1.9329376880
 H         -3.4648069651        5.2767000934       -2.8932139607
 O          7.6323396432        3.6780077160       -2.7827986511
 H          8.5874218847        3.7202562732       -2.8755812040
 H          7.4311170031        2.8296694367       -2.3408059201
 O         -0.4235307170        2.2109578660        6.6068888752
 H         -1.2276230101        2.4683861615        7.0616705079
 H          0.1124436023        3.0294942417        6.5352593228
 O         -0.4335982398       -0.4377166810        7.5869043084
 H          0.0109712712        0.4215194665        7.5443417828
 H         -1.3798427929       -0.2414470519        7.4187849697
 O          6.2301800837        2.7552934998        0.3518570991
 H          6.2885409404        2.1924306510       -0.4361081509
 H          6.9584463552        2.4872420997        0.9407875098
 O          4.7034622279        5.2993764653       -5.0474087751
 H          4.7823374533        5.2103156063       -4.0741500350
 H          3.9531864386        4.7542536705       -5.3396312357
 O          1.1419627992       -3.4803621011        2.8482021645
 H          0.6704385429       -2.8710082412        3.4401365462
 H          1.5138153436       -4.1724169972        3.4397680522
 O         -7.9070788673        2.1410270135        2.5286281217
 H         -7.6508255583        1.2598290347        2.2005256838
 H         -7.0779466167        2.6680177485        2.6110783782
 O         -1.9816345575        4.2495899500        0.5476977267
 H         -2.9319529350        4.0975739164        0.3908609870
 H         -1.9060545684        5.0623259824        1.0937601010
 O          4.2801222208       -2.1069880939       -0.7721360150
 H          4.2814461181       -3.0265688420       -1.0728170272
 H          3.4801095587       -1.9858162602       -0.2448870277
 O          8.2442629442       -3.0365882693        2.6245202833
 H          8.4491890054       -2.1601617651        2.2439505415
 H          7.4046648927       -2.9339949569        3.1255377665
 O         -8.4178649217       -3.0615169083       -4.8200558603
 H         -8.9564516456       -2.6674867311       -5.5148164528
 H         -7.7607153804       -2.3462959253       -4.5988475581
 O         -5.7396784640        6.0376197176        0.3890095589
 H         -6.0567455430        5.9427786384       -0.5231864060
 H         -6.5395272376        5.9609764945        0.9622632871
 O         -5.2092307294        0.7146399714        3.4780771975
 H         -5.9635555507        0.6518261538        4.0805887452
 H         -4.4999151627        0.1778793630        3.8763451383
 O         -7.7954685781        5.6862831330        1.9970009466
 H         -8.4333361376        5.0522122501        1.6450536051
 H         -7.7232552388        5.5027747169        2.9528737403
 O          1.6555604144       -4.3087688362        6.8488271790
 H          1.7145284162       -3.3346506412        6.7346446564
 H          0.7318268131       -4.4529572273        7.0724002726
 O         -3.7789847842       -2.5755341805        7.3178420845
 H         -4.7105918333       -2.4732811793        7.0569550836
 H         -3.4904961920       -1.6661737587        7.4977860548
 O          4.9753552747        4.7543527944        4.6770080620
 H          5.6751289838        4.0787938007        4.6330100377
 H          4.6322810418        4.8376288242        3.7764412851
 O          8.4483137496       -3.2387563383        6.5576670558
 H          7.7745074786       -3.9147940766        6.6418836600
 H          7.9719335017       -2.3946594521        6.5739066019
 O          4.6377640348       -1.8079663945        1.9475691509
 H          3.6897222561       -1.7018150084        1.7345853546
 H          4.9220464269       -2.6302298252        1.5000988007
 O          4.1789913012       -0.6082570816       -5.0067342713
 H          5.1113643077       -0.9079861353       -4.9844329619
 H          4.1241879492        0.1453531664       -4.3641037233
 O         -3.1248250181       -0.6301559221        4.5105915804
 H         -2.9038430360       -1.5833978816        4.4702085992
 H         -2.3573985365       -0.0995254042        4.2309224331
 O         -3.7844089448        2.8990248532       -4.0047574328
 H         -4.2230574768        2.8138472147       -3.1299798558
 H         -2.8449059310        3.0948707946       -3.8248476321
 O         -6.2615991737       -2.0111567993        6.2446013990
 H         -6.9199109297       -2.6805336302        6.4349873471
 H         -6.1217280822       -2.0458978258        5.2687110752
 O         -5.9635285686        2.9410778690        5.5955668979
 H         -6.4126532772        2.0892860028        5.6656035829
 H         -5.0165276068        2.7697536670        5.7823679077
 O          6.0716974278        2.9707851627       -4.8404672133
 H          6.7310331886        3.2570312003       -4.1778932689
 H          5.6871837443        3.7992638065       -5.1866173783
 O         -0.3877225580       -0.5378893818       -6.6687365677
 H         -0.3952786389        0.3273252322       -7.0953392840
 H          0.5064027231       -0.8859395673       -6.7793046977
 O         -1.5481147680       -2.8079347127        2.1860760004
 H         -2.5106862006       -2.6285476378        2.2107761838
 H         -1.1691104830       -2.3241614944        2.9346924175
 O          2.1924314702       -1.4811036555        0.8965679014
 H          2.0834102220       -0.5304839096        0.6781084898
 H          1.4746684479       -1.6863011387        1.5068188319
 O          5.8887422914        6.9465820227       -0.9678676853
 H          6.6351758426        6.4328321299       -0.6142919641
 H          5.3548192904        7.2449335002       -0.2203154510
 O         -2.0206880641        4.7554589966        6.2867017055
 H         -1.1120810869        4.9211537532        6.5550411817
 H         -2.0303128225        4.8194759092        5.3103576938
 O          1.4672898724       -2.9866479110       -1.6452633145
 H          0.7675512807       -2.8317679167       -2.3127654224
 H          1.0190474888       -3.2400562013       -0.8093691482
 O          0.8961506398        4.5142677826        6.3465051588
 H          1.8287673904        4.3161355009        6.4854055326
 H          0.8057183467        4.7448634007        5.3965246084
 O          6.1297245809       -3.7636668587        0.7309066957
 H          5.6079785066       -4.0373629255       -0.0318256586
 H          6.8246344504       -3.1682904829        0.3869442441
 O         -4.0328612017        0.2958892004       -4.3315270254
 H         -4.0257360072        1.2766076050       -4.2651708038
 H         -4.5850395512       -0.0278676088       -3.5951570803
 O         -4.5897059435        3.5708087566        0.3487213115
 H         -5.0680142677        4.4115310546        0.4569810613
 H         -4.4250055251        3.2035361848        1.2378215854
 O         -1.6943751931        4.6034736888       -5.9292677007
 H         -2.1861019623        3.9108194113       -6.3963058565
 H         -0.8306549581        4.7029445416       -6.3719235083
 O          6.7168700881        2.6490112029        4.6438118354
 H          7.6809162348        2.7014820601        4.8006697236
 H          6.6011210639        1.9477359443        3.9751038162
 O         -1.0901663935       -3.2445393389       -5.9856110513
 H         -1.8848064364       -2.7671668617       -6.3093346154
 H         -0.4186148359       -3.1887157278       -6.6676400287
 O         -9.3251905321        3.5736928194        0.8513854596
 H         -8.8192476835        3.0462945703        1.5165111244
 H        -10.2407465448        3.2746421199        0.9511250413
 O          1.2863001917        4.2165640953        0.3802508137
 H          0.7317332792        4.3902538390       -0.3968461350
 H          2.1843064341        4.0135515722        0.0499429966
 O         -5.8251117790        6.4566025521       -4.5865253685
 H         -6.0758182741        7.2997867679       -4.9618049644
 H         -4.8465466762        6.4671938240       -4.4838659251
 O         -2.6848888651       -6.7054107740       -3.1211401135
 H         -1.8292854024       -6.8549067106       -2.6941015586
 H         -2.5064120744       -6.4409061225       -4.0431065078
 O         -1.4034421839        1.4274216517        4.2354885930
 H         -0.8704222341        1.6259330593        5.0268678618
 H         -0.9919201686        1.8786239340        3.4781692550
 O          8.1926444587        2.3024282289        2.1013216238
 H          7.9295976744        1.4979297890        2.5723849290
 H          9.1677239134        2.3793702909        2.1659419924
 O         -7.3725082782        1.8754907906       -0.3596277299
 H         -8.0929659002        2.4823376606       -0.1606105693
 H         -7.6499745293        1.3118888767       -1.0995041834
 O         -2.1189637546        4.5170016161        3.6064758192
 H         -2.5398738280        3.7180764617        3.2154800105
 H         -2.5841328814        5.2723942377        3.2254114617
 O          0.1921672684       -5.1277064558       -4.1267551658
 H         -0.3261182777       -4.6544827855       -3.4407738565
 H         -0.4236953261       -5.6905432643       -4.6011107037
 O         -6.7783214413       -2.7827266409       -1.6271314102
 H         -7.7247125236       -2.6996544015       -1.8489431792
 H         -6.3322462804       -1.9558968862       -1.8961060846
 O         -7.3125270177        2.6413068080       -5.8666612208
 H         -7.3344701691        2.6795475431       -4.8908807068
 H         -6.5271042747        3.1667825189       -6.1121556441
 O          6.6205707080        0.4079368387        3.1501237297
 H          6.3853007140        0.2492808284        2.2094331660
 H          6.4860785295       -0.4195956019        3.6146822330
 O          9.0888493241       -0.5328879423        2.0518796124
 H          9.0090000586       -0.3203812214        3.0082783071
 H         10.0425495028       -0.4491672153        1.8597279316
 O          5.1112019211        1.0752758679        6.0544011676
 H          5.7799218843        1.6948137487        5.6927731921
 H          4.6477528994        0.6934956879        5.2600188531
 O         -6.8207003042       -3.1351543438        0.9756952438
 H         -6.8083811627       -2.9322276079        0.0138549479
 H         -5.9123872368       -3.3917427712        1.2105020947
 O          1.3336062440        0.5987327288        4.6560257928
 H          1.4040095112        0.7300158904        5.6204370809
 H          1.5203720844        1.4792175353        4.2543867098
 O          0.5303434811        4.8403467443        3.7261410447
 H         -0.4257754016        4.6713792473        3.5832902260
 H          0.7726959352        5.5745416363        3.1348910334
 O          1.7061356731       -1.6579750236        6.4787311935
 H          2.5056410687       -1.3464311406        6.9469950258
 H          0.9549545503       -1.2275416495        6.9213401599
 O         -7.2272444062        2.9221134315       -3.1806342239
 H         -8.1530182042        2.7904934542       -2.8994873665
 H         -6.9784144769        3.8263565150       -2.9159572976
 O         -4.4526126525        5.9271582288        2.8181550702
 H         -4.8245890147        6.5916488527        3.3972261987
 H         -4.7024615810        6.1620403907        1.9139814951
 O         -5.2732143651       -0.6235358945       -2.0771351292
 H         -5.3681532656        0.2985788020       -1.7848850448
 H         -4.7018762454       -1.0794096797       -1.4260035175
 O        -10.1430555159        0.3081413173       -4.0429479694
 H         -9.9054778379       -0.1405595718       -4.8744377992
 H        -10.7477873791       -0.2746657101       -3.5567973862
 O         -2.2636442750       -5.2122445091        0.4280943016
 H         -1.9750517594       -6.1024041976        0.7102558954
 H         -1.4467140284       -4.6812412881        0.4085994204
 O          0.6850123551       -6.7083022895        2.6874850507
 H         -0.0835973894       -6.1452680173        2.9042444512
 H          1.3292276530       -6.4748625734        3.3761886604
 O         11.6521337763        0.0290711732        1.4275075304
 H         11.7292505336        0.0453694586        0.4494980600
 H         12.1121063754       -0.7502123281        1.7617600754
 O         -3.1491540765        7.0851076694       -0.4728060948
 H         -3.1877412570        6.2631155558       -1.0083130277
 H         -4.0423103929        7.1922679628       -0.1363681902
 O          3.3172141783        7.5678932024       -4.0450269431
 H          3.9705861589        7.0516824529       -4.5368735781
 H          2.4547324047        7.3398199738       -4.4343184016
 O          0.8469105890        4.7484560805       -6.9102454010
 H          1.6405797976        4.2507497539       -6.6318424987
 H          0.8885692722        5.5448285203       -6.3498191091
 O          5.1222683142        4.8912513104       -2.4114691872
 H          6.0148955707        4.5223895802       -2.4786692858
 H          5.2595513647        5.7654023476       -1.9707977590
 O          6.7691130555        0.8941778181       -6.3819058343
 H          6.5263051042        1.6761733737       -5.8414331428
 H          6.0983758945        0.8869405655       -7.0710253917
 O          5.6020714211       -0.7869376406       -2.6155472507
 H          6.1139439855       -1.4049334773       -3.1418563506
 H          5.1083215561       -1.2850183984       -1.9318068799
 O         -3.0788396007        2.5895704334       -7.2934049182
 H         -3.4342074619        1.6816679228       -7.2486350783
 H         -3.8481279818        3.1591237711       -7.1485437936
 O          9.7466751652        3.3367521719       -0.2336434990
 H         10.0374975607        3.2277950899       -1.1523219321
 H          9.0531153517        4.0282035235       -0.2284392403
 O          6.9632675735        1.2727940309       -1.8987771667
 H          6.3730411927        0.4981452672       -2.0938266552
 H          7.6616754143        0.9522266285       -1.2832549104
 O         -3.8721824801       -2.2339553319       -0.4636781767
 H         -4.0697299524       -2.2517672571        0.4946887980
 H         -3.9632384325       -3.1227283358       -0.8274509380
 O         -3.7870936144       -4.3325210968       -2.2750934150
 H         -4.0672719464       -3.7290166822       -2.9824338798
 H         -3.6188408572       -5.2032366784       -2.6729887291
 O         -7.3341004366       -0.4085962423        1.7444312589
 H         -7.8901833137       -0.7205889804        0.9959233297
 H         -6.4620309252       -0.1975252025        1.3443093416
 O         -4.6396080846       -5.1391185130       -6.8300807174
 H         -5.2781038169       -5.1009669728       -6.0907420356
 H         -5.0019061665       -5.7454401020       -7.4751557669
 O          3.4353027984        3.2620680969        6.1722349947
 H          3.9977836039        3.9689785469        5.7749796233
 H          4.0372946991        2.5016868799        6.2808469779
 O          8.9266139915        0.7902021955       -0.2769134711
 H          8.8040690808        0.3450238828        0.5828268024
 H          9.1795106711        1.7225842120       -0.0959376610
 O          0.8137563411        2.1078836556       -4.7876160127
 H          1.0472211361        1.1942670952       -4.5195642092
 H          0.3428460146        2.0386603702       -5.6360974463
 O          8.5026922038        0.6454687582       -4.0039805121
 H          7.8244461676        0.9351751587       -3.3543037667
 H          8.1186274887        0.7542242978       -4.8786437090
 O          1.9546802100        1.1077474238        7.2796504207
 H          2.2998142104        2.0027273423        7.2113891067
 H          2.6279825960        0.5671297661        7.7072138453
 O          0.9208495525        6.3977530701       -4.7619225366
 H          0.1697017384        6.8037034459       -4.3007959754
 H          1.2178068585        5.6684885635       -4.1759694396
 O          4.3111550965        1.0692538864       -0.9393618935
 H          3.5795609742        0.4496720571       -1.1105239841
 H          4.9532625762        0.5976612786       -0.3782597944
 O         -6.5348016474        5.3660035629       -2.1818634576
 H         -6.4176018082        5.8731607906       -3.0039118804
 H         -7.4900138229        5.4046783263       -1.9340245684
 O         -0.9530312446       -3.1274615520        7.0127587835
 H         -1.8691561169       -3.2783019414        7.2659623036
 H         -0.7078889663       -2.2929138603        7.4374089438
 O        -10.6501898183        0.8436871107       -0.6862248475
 H        -11.2534096496        0.2629904146       -1.1698526836
 H        -11.1371817561        1.2985688382        0.0288701022
 O          1.6830544911       -4.1251638159       -6.1953648036
 H          1.1148309191       -4.3919609749       -5.4506270942
 H          2.5384309415       -4.5490147790       -6.0253260722
 O         -6.4219505665       -5.4137952226       -2.1329987675
 H         -5.6712912803       -5.8506636023       -1.6908206919
 H         -6.3700693235       -4.4640890862       -1.9025771644
 O         -1.4802232750       -5.1694775266        3.3549273978
 H         -1.4715721901       -4.3616319938        2.7848602721
 H         -1.6696112785       -4.8197610432        4.2325813267
 O         -1.1523685195       -4.1521858038       -1.9834334469
 H         -1.0318510560       -3.4024848729       -1.3681671192
 H         -2.1217348545       -4.1889983904       -2.1052375283
 O         -5.7438979720        3.5133450922        2.9977596013
 H         -5.8062604538        3.3262283172        3.9559416023
 H         -5.3816831728        4.4115662224        2.9317756064
 O          6.8374087295       -3.9584105942       -3.1961942995
 H          7.4202689983       -3.1819857862       -3.1009488536
 H          6.7614315398       -4.1068281909       -4.1518646436
 O          7.2829936789        4.7774679552        2.6276586397
 H          7.3790983388        5.0863651080        3.5286681528
 H          7.6300765110        3.8603613488        2.5909259852
 O         -0.1637770028       -2.2502066196       -3.6594093056
 H         -1.0358853029       -1.9844751985       -3.2917940152
 H         -0.3865218839       -2.6739968091       -4.5083507700
 O          3.7584698410        3.6573505633       -0.4485111247
 H          4.1868662114        4.1374312194       -1.1828068821
 H          3.9256558174        2.7068325546       -0.6113081194
 O         10.8305746165        2.5361574712        2.1960016193
 H         10.8114279725        3.0140020947        1.3540857776
 H         11.2500926254        1.6792109076        2.0105767355
 O         -3.0195856544        0.0336154227        7.0510861967
 H         -3.2443926748        0.9744377411        7.0054276812
 H         -3.0874529963       -0.2533854540        6.1065089557
 O          8.5078997568       -1.8418343419       -2.8800624419
 H          8.4968868998       -1.0080446573       -3.3908303965
 H          9.4421401585       -2.0845840802       -2.7682265197
 O          6.0276809062       -2.6217852692        4.0031963575
 H          5.4374088662       -2.2119244506        3.3332943964
 H          5.6308340793       -3.5079857762        4.1194123132
 O        -11.4737325962       -1.3227180602       -2.2464896361
 H        -10.6927467089       -1.9272698112       -2.1793677284
 H        -12.2416162640       -1.8847703704       -2.3430165831
 O         -4.2591362985        0.1306925125       -6.9603914298
 H         -3.9044685511       -0.7409839620       -7.1848485577
 H         -4.1873776497        0.1733801558       -5.9795071816
 O         -2.2166428303       -5.6629531462       -5.5614101896
 H         -3.0541404522       -5.6199898182       -6.0454067952
 H         -1.8036678751       -4.7857483351       -5.6971555146
 O         -4.6043385589       -4.5343383505        1.3867728020
 H         -3.6736399311       -4.6553676526        1.0994245178
 H         -5.0391505219       -5.3977452273        1.2414588720
 O         -3.5477284902       -2.5207469896       -6.6962821335
 H         -3.8762442826       -3.3493655383       -7.0660260782
 H         -3.9215294335       -2.4977677897       -5.7861723149
 O          6.4386220768       -6.2027195530        1.7764196213
 H          6.3902456656       -5.2805444007        1.4290071831
 H          7.3701842536       -6.4334623131        1.7759582392
 O          9.1546451286       -0.2227280404        4.6820520501
 H          8.3364983803       -0.4266158912        5.1822893263
 H          9.6988315497       -1.0313073431        4.7507275935
 O         -3.3650800509        2.4431080182        2.4875140659
 H         -4.0967254668        2.1717681900        3.0617725218
 H         -2.8634425187        1.6240333826        2.2881505024
 O         -9.3651744712       -2.9087138588        1.9724077874
 H         -9.6327341225       -3.8230154440        2.0719171976
 H         -8.4137319616       -2.9357063684        1.7572297562
 O         -0.3104098370       -6.6539788004       -1.4992060732
 H          0.6535489272       -6.6051488727       -1.4990981784
 H         -0.6157016158       -5.7192077584       -1.5123471863
 O          6.6719620000       -1.5335102112       -5.1319846548
 H          6.7059526436       -2.3669702620       -5.6171471069
 H          6.9167311565       -0.8054304816       -5.7262559549
 O         -9.1936369269        2.6449042007        4.7991028988
 H         -8.7536204444        2.1481661251        5.4931230195
 H         -8.6979901708        2.4382013138        3.9735877985
 O         -1.6923961925        6.6004401251        1.7420673615
 H         -0.7579175458        6.8316469732        1.7611010736
 H         -2.0969846086        7.0107095419        0.9533083606
 O          4.0803238715       -4.9789229518       -5.1277699936
 H          3.8934056073       -4.2314332822       -4.5107978547
 H          4.1937668059       -5.7693936911       -4.5781485297
 O          2.1815238216       -5.4655527450       -2.3905607241
 H          1.9566734390       -4.6136189287       -1.9652284072
 H          1.5877210193       -5.5005145201       -3.1607183038
 O         -6.3305276524       -4.8201730084       -4.7334672488
 H         -7.1717529391       -4.3444125577       -4.8562873328
 H         -6.3702262416       -5.1982845868       -3.8254724360
 O         -2.5419601882       -1.6353654242       -2.7803492678
 H         -3.2878334675       -1.8275985025       -3.3533320297
 H         -2.8017641699       -0.9295446416       -2.1732242979
 O         -3.2572720359       -7.1314685026        2.7362241634
 H         -2.6360255432       -6.4069667882        2.9628723988
 H         -2.7380962914       -7.7156099972        2.1732572480
 O        -11.7053228568        2.2334139297        1.3346530987
 H        -11.4756309128        1.7921012944        2.2037358300
 H        -12.5776845600        2.6079193084        1.4516297272
 O          0.4168425741        7.4259519782       -0.7142635322
 H          0.6620590358        7.3938377404        0.2254334948
 H          0.0409582053        6.5523682922       -0.9073993647
 O         -4.6983515644       -2.7559343587       -4.2991549874
 H         -5.2525053223       -3.5376619063       -4.5195211154
 H         -5.3548025555       -2.0320387521       -4.1906320169
 O          7.5285032932       -5.6344998858       -1.1248710910
 H          6.8743986717       -6.3355050807       -1.1279597016
 H          7.3617722071       -5.0780574451       -1.9034294570
 O         -7.9661523999       -5.5016838683        1.3788112663
 H         -7.4902774466       -4.6703718787        1.1412115671
 H         -7.2995730674       -6.2031141897        1.3696754254
 O         -9.3736090594       -0.9330088980       -6.3846664904
 H         -9.9006414748       -0.6432285030       -7.1290797352
 H         -8.4773700948       -0.5592038149       -6.5285824377
 O          7.9115540360       -1.9927034692       -0.2724117279
 H          8.8009036286       -2.1718510582        0.0762633800
 H          8.0208427058       -1.9027719951       -1.2379700521
 O          9.4000184658        2.5051985369        4.7723736077
 H          9.4609002212        1.5392378628        4.8648308275
 H         10.0416977728        2.7470332852        4.0958712191
 O          3.9843688030       -0.8766784600        7.6787049358
 H          4.5202940205       -0.1967743026        7.2497427916
 H          4.3784427699       -1.7389990296        7.4213368742
 O         -6.7455851098       -1.1183018267       -4.3187581932
 H         -7.0792578002       -0.5738646620       -3.5737034978
 H         -6.7822571313       -0.5683999611       -5.1368163538
 O          3.3849222678       -4.1560952745        1.3850260208
 H          2.9781502187       -4.9256549801        0.9558910987
 H          2.6732626247       -3.7087572814        1.8670744771
 O         -7.7258600759        5.0100101860        4.6579974541
 H         -6.9969322965        4.5960116577        5.1356838249
 H         -8.4650362266        4.3906948002        4.7586411640
 O         -5.6248256885       -7.0178654854        1.3642503372
 H         -4.8979380519       -7.2413400608        1.9733670941
 H         -5.2954035898       -7.2391888649        0.4786979575
 O          4.6926607186       -6.9762931363       -0.2162473396
 H          5.2487684490       -6.8767462387        0.5756990480
 H          4.7168295151       -6.1085306928       -0.6575146319
 O         11.0536845019       -2.4551070123       -2.1335077472
 H         10.8537099798       -2.6789525330       -1.1892271777
 H         11.6577759377       -3.1216405035       -2.4572617521
 O          4.0897343955        1.5936495502       -3.5559102772
 H          4.4296071995        1.3899316727       -2.6643395198
 H          4.7706629075        2.1233866488       -4.0086425549
 O         -3.3543622500        2.4647783116        5.8965126279
 H         -2.8164824192        2.1370208097        5.1478139129
 H         -2.9715943115        3.3313291347        6.1328335245
 O         -4.0518601756       -1.9731377374        2.1360918454
 H         -3.6572337496       -1.0819302443        2.1949989084
 H         -4.7935100386       -2.0264278216        2.7680889159
 O         -4.7937059300       -5.0426736491        3.9663882442
 H         -4.7033499295       -4.7487820767        3.0258137809
 H         -4.4431550016       -5.9369810046        3.9879218008
 O         -9.3877125448       -2.9639786333       -2.3171222913
 H         -9.1653004131       -3.1142750669       -3.2584235172
 H         -9.3967853699       -3.8506154276       -1.8872805432
 O         -6.9378135424        0.1820032206       -6.5838305715
 H         -7.1136490769        1.1373644465       -6.3579842938
 H         -6.0244425069        0.1584545977       -6.9304125246
 O          3.7286213202        6.9940638495        0.9581967972
 H          4.0599017374        6.1593202939        1.3469128463
 H          3.4657944438        6.7977199980        0.0386424992
 O          3.5708372592       -2.8905629630       -3.5941382983
 H          2.8344327063       -2.8101429687       -2.9798967085
 H          3.7035658635       -2.0268897797       -4.0231278425
 O         -9.0018145337       -1.1778690123       -0.1366491793
 H         -9.4304220805       -1.8817589545        0.3689431882
 H         -9.6276388275       -0.4300101238       -0.2025797625
 O          3.9197885139        1.1456916155       -7.0379573968
 H          3.9932943273        0.5226391530       -6.2812688587
 H          3.2246408585        0.8057436133       -7.6019598074
 O         -9.1581636872       -0.7641619257        3.7100177815
 H         -9.4364854576       -1.6507790709        3.4395083353
 H         -8.5582699828       -0.4836037234        2.9984389918
 O         -4.2786823714       -6.7098079132       -0.9237543443
 H         -3.6121854029       -6.0984810014       -0.5647385487
 H         -3.8517379761       -7.1204789154       -1.6848144574
 O         -9.0593099167        5.0696893568       -1.4830464986
 H         -9.1251678162        4.7274167674       -0.5787535831
 H         -9.4893962120        4.3992375762       -2.0316051302
 O          2.0796513698       -6.3533366428        0.3953301546
 H          1.7082732182       -6.6828738181        1.2348863592
 H          2.9111764008       -6.8232460708        0.2075228323
 O         10.2908629748        2.3677042443       -2.7626322115
 H          9.7453466319        1.7784923401       -3.3123998033
 H         10.9596643944        1.7853360029       -2.3768933533
 O          3.2048704370       -2.5451200933        4.4194127380
 H          3.5745980621       -1.7065322086        4.1016091506
 H          2.4649774827       -2.2910198909        4.9862804292
 O         -5.1875532006        0.6985500548        0.7018332594
 H         -4.9880114454        0.9599515266        1.6144940013
 H         -5.8375232406        1.3305204301        0.3416663720
 O         -9.0135679867       -5.3382549894       -1.1955737976
 H         -8.1619141823       -5.5527358628       -1.6143950824
 H         -8.8616951892       -5.4631140796       -0.2442369293
 O         -9.8383517146        2.6271007682       -2.5705248323
 H        -10.0909089895        2.1119403207       -3.3473448321
 H        -10.0701037234        2.0619715173       -1.8074539850
 O         -5.0499775000        4.1011403850       -6.0310053346
 H         -5.3947230914        4.9426318176       -5.7071537728
 H         -4.5897817219        3.6953949477       -5.2639926199
 O          9.0970745006       -5.0620525899        1.0426565836
 H          8.5346808208       -5.2358154210        0.2682512156
 H          8.6139744888       -4.4508375399        1.6314702673
 O         -0.3343534664        2.1709994690       -7.2950021292
 H          0.0800180993        3.0190754850       -7.5023194432
 H         -1.2919821994        2.3008162856       -7.3864433281
 O          4.2505086412       -7.0284849156       -3.2372359445
 H          3.4180345467       -6.7046161241       -2.8596665954
 H          4.6625933842       -7.5397034570       -2.5380690525
 O          1.5282051037       -0.3956827531       -4.3050305805
 H          0.8067016940       -1.0286001503       -4.0772221408
 H          1.8786905246       -0.7064309622       -5.1540394872
 O         -7.4439400207       -4.4646800500        3.9118061726
 H         -7.7650503024       -4.9508506589        3.1348543221
 H         -6.5661754000       -4.8350197830        4.1131488278
 O         -8.0507395604        0.1002052245       -2.3603252298
 H         -8.8176272002        0.2735071030       -2.9419745379
 H         -8.3390990313       -0.5527583220       -1.7059860983
 O          6.9160752499       -1.0059243508        5.9385024793
 H          6.4535124306       -1.6582943823        5.3742013413
 H          6.2899766909       -0.2865660155        6.1248891964
 O         -6.2616184468       -2.1026598734        3.6036842743
 H         -6.7110118790       -1.5010716625        2.9813469773
 H         -6.7624513245       -2.9469732259        3.6039430524
 O          4.1090462537        1.7620737926        1.9438314159
 H          3.6940687159        2.4823787332        2.4440881266
 H          4.8384977207        2.1323683728        1.4177183691
 O         -5.0879265232        2.0860959061       -1.8546187147
 H         -5.9641851007        2.2861200098       -2.2352399535
 H         -4.9786509194        2.6546585456       -1.0702852473
 O         10.4282538526       -2.9058362788        0.3762147693
 H         10.0459357854       -3.7984406267        0.5759819334
 H         11.0205579995       -2.7082400103        1.1201428166
 O         11.3296400321        0.1693798866       -1.2517563386
 H         11.3471221101       -0.6910574454       -1.6930417060
 H         10.3926677575        0.3189422432       -0.9914255677
 O         -2.3656022449        0.0772280896        1.8434641836
 H         -2.4352990191        0.0807547955        0.8734847134
 H         -1.4155238648       -0.0549450536        2.0599317075
 O         -7.2575921620        0.4212100676        5.3837839198
 H         -8.0026821536        0.0196867906        4.9062830205
 H         -6.8696790221       -0.2986309320        5.9083792290
 O         -3.2053698504        6.2032740915       -4.3649142632
 H         -2.5109944553        6.7571622068       -3.9583621669
 H         -2.7509520474        5.6728556582       -5.0436565954
 O          4.6055532103       -3.2583640461        6.5844033676
 H          4.0400830635       -3.9081513813        7.0058318829
 H          4.1785126510       -3.0728877599        5.7139037131
 O         10.1321409059       -2.7308223012        4.4660595144
 H          9.4450629538       -2.9675641477        3.7967764181
 H          9.7732790936       -3.0591179987        5.3076257082
 O          4.7276399138       -4.6138876829       -1.6252417073
 H          5.3917643288       -4.3669111260       -2.2969839598
 H          3.9193903308       -4.8740130222       -2.0939399344
 O          2.2191163821       -1.5807226275       -6.6732500342
 H          3.1360076787       -1.4795952736       -6.3910279749
 H          2.0079553618       -2.5343150698       -6.5412978646
 O         12.0440913523       -2.4776853503        2.5745881797
 H         11.4124143533       -2.5353172187        3.3214585840
 H         12.7565324956       -3.0815589000        2.7832966757
 O          2.2172903732       -5.3489248475        4.4398515239
 H          2.0372173419       -5.0342203485        5.3502937108
 H          3.1707727253       -5.2216751748        4.2858506051
 O        -11.1254987258        1.1415996358        3.6182541878
 H        -10.6490042296        1.8116989847        4.1425107366
 H        -10.5325145318        0.3680516999        3.6245062931
 O         -1.2123837781       -7.6543083550        0.8561075409
 H         -0.4764849052       -7.5790579498        1.4776734634
 H         -0.8380877986       -7.5029420252       -0.0339501085
 O          2.0444240841        4.6238994568       -3.0754270891
 H          2.3729416732        5.3127857472       -2.4421171402
 H          2.8070736498        4.3159770959       -3.5711969216
 O          2.8102837350        6.6394410537       -1.5987198562
 H          3.1578751305        7.1307810976       -2.3750594326
 H          1.9605800404        7.0737818771       -1.3667743855
 O          4.7663566782       -4.9483298010        3.5559398749
 H          5.3719837179       -5.6132084498        3.2031355782
 H          4.3131409882       -4.5810101735        2.7609117178
 O          7.6188760876        5.0204457388       -0.0236857321
 H          6.9916432945        4.2640454834       -0.0434375633
 H          7.6935776300        5.2365522786        0.9175130365
 O          6.4585358226       -4.1948963472       -5.9300085554
 H          5.5315646918       -4.4937476550       -5.7423154460
 H          6.8464753654       -4.8471695413       -6.5116454372
 O          1.1997481008        6.5040022496        1.7042037272
 H          2.1171375181        6.8461706340        1.6449194773
 H          1.2383824032        5.6273448976        1.2393199349
 O         -2.6755609248        0.5444198091       -1.2791689948
 H         -1.6937708024        0.4450555490       -1.2833845242
 H         -2.8215354080        1.3170821070       -1.8250721924
 O          2.8283031273        6.8000149549        4.3560175776
 H          3.4294610723        6.2720050929        4.8846113456
 H          3.2995301964        7.0477515267        3.5585339986
 O         -0.1859657441        0.4501587260       -1.6837874867
 H          0.7180515589        0.1870596728       -1.4771406369
 H         -0.2850490722        0.4214445727       -2.6412473732
