  121
       -203.85102331
 H         -0.6634911867       -0.9046968303       -1.3469126267
 O          3.2193518033       -2.5282964459        3.3157106803
 H          3.7575329003       -3.1647080188        3.7861881524
 H          2.4821446713       -3.0257801855        2.9106991912
 O         -0.6249826980        0.9865310856        5.0429796508
 H          0.3225618095        0.9565116664        5.2093719041
 H         -0.8312611808        0.1191509777        4.6562543865
 O         -3.4382765813        2.8286372798       -2.2086317999
 H         -3.7585073842        3.6934304588       -2.4647642973
 H         -2.4917432308        2.9353150469       -1.9511044058
 O         -1.8801371867       -0.9346226710        0.9699877499
 H         -2.7262332414       -0.8577056920        1.4378895661
 H         -1.8708118969       -1.7998084684        0.5128518837
 O          1.9694213579       -3.1185896520       -2.5499726496
 H          2.7286601562       -2.6029089446       -2.1617651647
 H          2.3719358239       -3.8027653697       -3.0847052642
 O          0.1487460556       -1.4803021507       -1.1380219501
 H          0.9396933063       -1.0302463881       -1.6734613680
 H          0.3948258910       -1.3436570288       -0.1334612913
 O         -0.9172408053        3.0437696838       -1.3619031335
 H         -0.5090171998        3.8135884933       -0.9409453372
 H         -0.8737141065        2.3328596618       -0.6808727299
 O         -0.9280257697       -1.2249013876        3.4807244638
 H         -1.0788415991       -2.1787955047        3.5597545486
 H         -1.0073496523       -1.0449974517        2.5194935560
 O          0.8785818810       -1.1179778055        1.2327240395
 H          1.8265634802       -0.8814198518        1.1200673984
 H          0.8968399572       -2.0252146457        1.6141199671
 O          4.0248808572       -1.9175625606       -1.4650646875
 H          4.2378634628       -1.0733409376       -1.8914337196
 H          3.8268335705       -1.6879577318       -0.5405795988
 O          1.7126440460       -0.2997906799        3.9895478001
 H          0.8795923378       -0.6583103940        3.6384511018
 H          2.3624175411       -1.0112747015        3.8797615659
 O         -3.9441514692       -3.0049761808        1.7531977494
 H         -4.2690224039       -2.6189228506        0.9218182630
 H         -4.1218588630       -2.3244299122        2.4163520253
 O         -1.6543746171       -3.8359820720        2.9989984578
 H         -1.9266856687       -4.5806932217        3.5356857197
 H         -2.4283834717       -3.5932726561        2.4516080279
 O         -4.3658452733       -1.8849999002       -3.0312691424
 H         -4.5853268742       -1.7455527368       -2.0942172195
 H         -4.1343011091       -1.0178857282       -3.4004000491
 O         -0.8601368645        0.3997185311       -4.9968145001
 H         -0.5371221516       -0.4548236169       -4.6059953422
 H         -0.6488506260        0.3560670683       -5.9296625180
 O         -3.6971053935       -0.5295610936        2.9960981957
 H         -2.9182979029       -0.6017115468        3.5632496131
 H         -3.8598056597        0.4190279543        2.8678487899
 O          4.8366695255        0.6664739726       -2.2641285560
 H          4.2377976442        1.3638151967       -2.6296069126
 H          5.6111740931        0.6546244581       -2.8261700019
 O          0.7480789774       -4.2905115844       -0.3804811126
 H         -0.1637144899       -3.9636268932       -0.4257359596
 H          1.2136002428       -3.8642448010       -1.1252697445
 O         -2.1938904022       -3.2967226409       -2.9441512138
 H         -3.0355792092       -2.7690880672       -3.0504097975
 H         -2.3198486606       -4.1155907580       -3.4237790717
 O         -1.7204300430        0.1356997733       -1.6454496489
 H         -2.2282531035        0.1150427405       -2.4776287750
 H         -2.3660742244        0.2821089643       -0.9370199718
 O         -0.0557035434       -1.8833538804       -3.9915664094
 H          0.7418650594       -2.1992252784       -3.5322740951
 H         -0.7925208040       -2.3826671584       -3.6046371741
 O         -1.2382662874        2.5635346468        3.0242240022
 H         -1.0392855407        2.0037178667        3.8159449493
 H         -0.5652199729        3.2624786568        3.0223094098
 O         -3.8691724586        1.0274585495       -0.1594440106
 H         -3.9104870188        1.7049006009       -0.8548042023
 H         -3.8552894321        1.4841390133        0.6962607104
 O          2.7665900096        3.8293111607       -0.6353127343
 H          3.3891550726        3.9645356671        0.0943411738
 H          1.9699255560        4.3475088150       -0.4343896530
 O         -0.5767995509        1.4019354713        0.6879222976
 H         -0.9677170937        0.5101187811        0.7240650171
 H         -0.7879120169        1.8215926808        1.5445103235
 O         -3.7829161453        2.1640409738        2.3621169418
 H         -2.8578255321        2.3911032228        2.6023226133
 H         -4.3496000679        2.7960754952        2.8049291809
 O          1.0153131764       -3.6093842806        2.1200805474
 H          1.0508725585       -3.9763744248        1.1974799227
 H          0.1377768546       -3.8401307983        2.4561576274
 O          1.0339506929        4.0068321225        2.7144628600
 H          1.5293781703        4.5956132962        3.2843842716
 H          1.5629984876        3.1577252986        2.6657764660
 O          4.2953665038        3.5911796737        1.6552043365
 H          3.7671806891        2.9410105741        2.1581995301
 H          5.1397344734        3.6746444052        2.0989417539
 O          3.3081673695        2.6631821524       -3.1075617778
 H          2.4018588250        2.4463424310       -3.3731305528
 H          3.2224039473        3.2320491261       -2.3298683150
 O          5.0851953307        1.0934751707        0.4166614759
 H          4.7930829402        2.0014947572        0.5576803698
 H          5.0706713252        0.9433804591       -0.5482049075
 O         -1.8693208284       -3.3080117734       -0.3009779387
 H         -2.5789315342       -3.8490831660        0.0498572116
 H         -1.9719534540       -3.2790371384       -1.2777573654
 O          2.0061348105        1.3379230854        0.0164670233
 H          1.0425627974        1.3448037939        0.1947405632
 H          2.2518101333        2.2207931210       -0.3256620440
 O          3.4935340693       -0.9257816227        1.0427025623
 H          4.0970760573       -0.1570897156        0.9170554952
 H          3.7678300328       -1.4057109912        1.8334719976
 O         -4.8963038991       -1.4373055831       -0.3420391645
 H         -4.5328717658       -0.5299766088       -0.2451450835
 H         -5.8463409521       -1.3654216407       -0.2397405278
 O         -3.2813413919        0.5284669494       -3.7898939514
 H         -2.5234639796        0.5762520430       -4.4013167790
 H         -3.4468755168        1.4210126230       -3.4495130805
 O          2.4669002307        1.8299584646        2.5783250590
 H          2.3718694357        1.4951207714        1.6543317778
 H          2.2301574103        1.0680333918        3.1544833320
 O          0.4106393607        4.9202900673        0.2543499690
 H          0.5753674820        4.5751058056        1.1596069544
 H          0.2480701311        5.8603268837        0.3359796369
 O          0.6434455814        1.9056317974       -3.3136267135
 H          0.0542323725        2.3142863848       -2.6532287673
 H          0.0699209781        1.4820650526       -3.9766397553
 O          1.9494813157       -0.1403978158       -2.1972039867
 H          1.4990598308        0.5492923312       -2.7287537141
 H          2.2438604205        0.3169696765       -1.3830658443
