  191
       -320.31853337
 H         -1.1079905713        1.8813164767       -0.2534445803
 C         -0.2472101454        1.7450403331        0.4025925526
 H          0.3379196249        0.9024890474        0.0359048556
 C         -0.7149837821        1.4892156452        1.8323965406
 H         -1.3150063363        2.3420997013        2.1664262680
 H          0.1533932060        1.4061877333        2.4864822067
 N         -1.4541278568        0.2340199112        1.8999740683
 H         -1.7730111799        0.0767142468        2.8478882417
 H         -2.2816598470        0.2722602224        1.3060860927
 O          0.5979201657        2.8858159579        0.3130382491
 H          0.2046837134        3.6082957984        0.8533137433
 O         -1.6630280811       -2.6143578153       -3.3265582698
 H         -0.7990433174       -2.5579798977       -3.7875109587
 H         -1.5941970626       -2.0675818037       -2.5150122235
 O         -4.0124559084       -1.7135484130       -4.1155364276
 H         -3.1237422394       -2.0897370033       -3.9331274265
 H         -3.8348205732       -0.8601712109       -4.5312251747
 O          2.9259220840        0.5240506133       -1.4361705436
 H          3.6437564898       -0.1376262997       -1.4418609826
 H          3.0598085574        1.1490831015       -2.1760072977
 O          0.1236790156       -1.6858701847        1.0930317715
 H         -0.5063090293       -0.9791590908        1.4372458487
 H          0.9621619272       -1.2129255506        0.9321734827
 O          0.0238832115       -5.5124959319       -1.9192515124
 H          0.4861290614       -4.6688193210       -1.7053057389
 H          0.5292905194       -5.9104659924       -2.6287004592
 O         -2.5639187529       -3.3565292750        3.7842256244
 H         -2.0421837577       -2.6543508728        4.1959922395
 H         -2.0110867683       -3.7345084282        3.0746222072
 O         -6.2719919055        1.3054291737        1.2202447638
 H         -5.4378081425        0.8544302340        0.9475814747
 H         -6.8805165813        0.5643292325        1.3419024757
 O         -0.0955054457        2.8453246328        5.0251253622
 H          0.6118856305        3.3743056139        4.6328839405
 H         -0.9148363477        3.1490250666        4.6090139301
 O          2.5341284978        1.5679313969        3.1443179845
 H          3.4691140800        1.6666914110        3.4008514382
 H          2.1715028001        2.4753772450        3.1727694607
 O          1.7800579196        4.1612878781        3.3232416834
 H          2.6572829508        4.4525061531        3.0095709657
 H          1.1213442413        4.5656419148        2.7418452776
 O         -0.4837068019        4.8503027633        1.8421559239
 H         -1.1116419592        4.5693454040        2.5305227284
 H         -1.0337156435        5.2582959965        1.1494765110
 O         -3.7974845900       -0.0714734250        3.9657203656
 H         -3.0500978364       -0.4492686828        4.4545187073
 H         -4.2003903474       -0.7984744643        3.4764651032
 O          5.4036344251        5.1285221222       -0.1685519153
 H          5.1046504226        4.9001868922        0.7322746088
 H          5.3350455348        6.0799043743       -0.2450980099
 O          3.2853573887        2.5417331739        0.4803595466
 H          2.3201668637        2.6202765714        0.3797925749
 H          3.6926503228        2.7181626038       -0.3909556760
 O         -2.6420758983       -4.8251135826       -2.2542772449
 H         -2.2956508461       -4.0501581304       -2.7529038773
 H         -1.8479340899       -5.3474822263       -2.0660939148
 O         -1.0981983258        5.2832187076       -2.5611575207
 H         -1.3863667298        5.4574181847       -1.6513208513
 H         -1.8301348892        4.7769487670       -2.9566142205
 O          5.7866414482        0.5704198728       -3.0105464127
 H          5.5317724231        1.3985515779       -2.5813332570
 H          6.3787574154        0.1106180948       -2.4003593922
 O         -4.3818791086       -2.2904466164        2.2120683271
 H         -3.8049642563       -2.7241077666        2.8898352730
 H         -4.1807335049       -2.7847744905        1.4037033011
 O          2.2310175486       -4.1781645571        1.3028710208
 H          1.9899344309       -3.7992892272        2.1547780397
 H          3.1991100153       -4.0647065108        1.2006412098
 O         -2.3557068851        3.9738463514        3.7108822299
 H         -3.0662058371        3.3848601343        3.3774790631
 H         -2.7721205701        4.5726939885        4.3315895731
 O         -6.0169105988       -3.2780935522       -0.7788616657
 H         -5.1997526499       -3.5610721909       -0.3459246796
 H         -5.9770681392       -3.6956850993       -1.6655011671
 O         -0.5847083771        0.9078244455       -3.4446587018
 H         -0.3658145335        1.7962291348       -3.1038567583
 H         -1.4978455249        0.9203972785       -3.7736381866
 O         -2.3205787963        5.4048099638       -0.0577863307
 H         -2.7170526844        4.5031982814        0.0219354039
 H         -3.0537415147        6.0202151584       -0.0726878303
 O         -2.7647330958        1.1589574303       -1.5533311971
 H         -3.6488255900        1.0232782869       -1.9399063920
 H         -2.4222521566        0.2668188092       -1.3546643572
 O         -3.0471904809        3.4775430778       -3.1121376767
 H         -3.9943841466        3.5511951623       -2.9790065102
 H         -2.7642971725        2.7090621632       -2.5915244085
 O          0.7908691020        0.2913449281        4.7801879163
 H          0.4185124717        1.1524928283        5.0544323966
 H          1.5121286218        0.5530063893        4.1760288941
 O          2.8531554603       -3.8787206789       -3.5027637283
 H          3.4337130609       -3.1362849081       -3.7125315077
 H          2.5710362513       -3.7590242821       -2.5793499208
 O          5.1373884237        2.0835266067        3.8247339299
 H          5.5909100227        1.2796992607        3.4559564628
 H          5.3732013800        2.1253281347        4.7511415907
 O          7.2712874804       -2.1573593238        1.1882937747
 H          7.0789579688       -1.5056782740        1.8802381688
 H          6.4939574917       -2.7473860674        1.1501931288
 O         -4.0561721559       -0.0602915435        0.6344750653
 H         -4.3077321014       -0.4045435273       -0.2468696735
 H         -4.1880267501       -0.8020508321        1.2481797890
 O          0.8035984440       -2.3009792061       -4.2271677835
 H          1.4480776565       -3.0319311519       -4.1637188511
 H          0.9105335240       -1.8005237107       -3.3920509852
 O          3.7800337013       -1.5899974536        2.7761195801
 H          3.3428429943       -1.0442958678        2.0820462596
 H          3.0317758552       -1.9803817761        3.2619683400
 O         -3.1914109602        0.9533094559       -4.5735338472
 H         -3.9353259011        1.2117320638       -3.9967943241
 H         -3.1126388466        1.6468384298       -5.2294634187
 O          2.8483130009        2.3510123812       -3.4381285332
 H          1.9933082734        2.7400334673       -3.1616136075
 H          2.6395082198        1.7571814567       -4.1705385721
 O          2.3253799856       -0.1551415305        1.1003872427
 H          2.3439688279        0.5976060972        1.7229929426
 H          2.6274901782        0.1763867236        0.2387891523
 O          1.6615782580        0.2209006314       -4.8466666052
 H          0.8545951280        0.5328756735       -4.3917547250
 H          1.4084299177       -0.6565477318       -5.1661068860
 O         -5.9261948001        3.0833580648       -0.8255946580
 H         -6.3446784177        2.5143060752       -0.1548985488
 H         -5.0353386996        3.2451124216       -0.4613436558
 O          5.3265227094        0.6928615999        0.3747265971
 H          4.5447154966        1.2534735924        0.5073488999
 H          5.9150345425        1.1805316825       -0.2026344130
 O         -3.2794101451       -3.5009114528       -0.0423234962
 H         -3.1372381480       -4.0510913882       -0.8493762452
 H         -2.5684904019       -3.7908576799        0.5760047451
 O         -4.9700865414       -1.0029549370       -1.7082561924
 H         -5.4814328665       -1.7636375686       -1.3620218115
 H         -4.5789281340       -1.3148498316       -2.5531504262
 O         -3.4277071061        3.0211213570        0.2509573974
 H         -3.6273204785        2.6768967163        1.1426364589
 H         -3.1688849769        2.2513174387       -0.3013533473
 O          3.8892876965       -1.2199041256       -3.8154838753
 H          4.6171364664       -0.5747449085       -3.7514303075
 H          3.1318339303       -0.7190696102       -4.1591274268
 O         -1.8673001509       -1.3766937975       -0.9471201552
 H         -1.0552735830       -1.4657110303       -0.4263501902
 H         -2.4964177174       -2.0402547008       -0.5919587161
 O          4.7569883097       -3.2883064488        0.9700671890
 H          4.5836593241       -2.8027935607        0.1401072112
 H          4.4922160160       -2.6726805949        1.6878418275
 O         -5.2189246412        1.4352702294       -2.7755048203
 H         -5.6024746990        2.0781971437       -2.1328274699
 H         -5.5079853875        0.5581121984       -2.4738244807
 O          6.0606298876       -0.1467318529        2.7652853533
 H          5.8804584121        0.1526342672        1.8431981436
 H          5.3052121118       -0.7244230920        2.9773966890
 O         -4.2044658492        2.2781452069        2.7490491321
 H         -5.1154830931        2.1596532655        2.4280003738
 H         -4.0006850379        1.4331637402        3.2019030186
 O         -5.2332582105       -4.1447369089       -3.1949797266
 H         -4.4094819097       -4.5993912522       -2.9702535174
 H         -4.9757018216       -3.3644053618       -3.7033469342
 O         -1.4567179238       -1.1019549709        5.0335113685
 H         -1.4873510895       -1.2879298710        5.9725213734
 H         -0.6315678616       -0.5906082058        4.8835551036
 O          1.4447556599       -3.3876983036       -1.1756022644
 H          1.6911824350       -3.5522982858       -0.2472960660
 H          1.1180245965       -2.4767097755       -1.2450056102
 O          4.2828475082        4.2489998596        2.2124011486
 H          4.7843254673        3.6938917971        2.8261576584
 H          3.8826136142        3.6018709872        1.5806589347
 O          0.2729178833       -6.0743414265        0.7853966867
 H          1.1175150007       -5.6308384628        0.9586902930
 H          0.1570868689       -6.0717370722       -0.1791766268
 O          4.4751811643       -1.7045517253       -1.2235306680
 H          4.2539972132       -1.8212208555       -2.1630076558
 H          5.4091859173       -1.4261181395       -1.1959334590
 O         -1.2206028042       -4.0355450903        1.5291567796
 H         -0.7277661853       -4.8678986887        1.3248681326
 H         -0.6206796428       -3.2992197815        1.3286535408
 O          7.1618687692       -1.1051741694       -1.2197650492
 H          7.2712242681       -1.4147448325       -0.2808154691
 H          7.7166831871       -1.6828998149       -1.7450188292
 O          1.2839757273       -2.3629293368        3.4854590163
 H          1.0667389815       -1.6766110293        4.1234991458
 H          0.7792619746       -2.1446481022        2.6746635332
 O         -6.9141725232       -1.4157757148        1.2672799728
 H         -6.9620585198       -2.0129598847        0.5119345027
 H         -6.2095200593       -1.7733956557        1.8232021735
 O          0.4923340844        3.1835692349       -2.4364906422
 H         -0.0044432216        4.0252840772       -2.5741767244
 H          0.5921443566        3.0942383477       -1.4749617838
 O          4.8591283931        2.9129823211       -1.6856949216
 H          5.1748477709        3.7716621953       -1.3589955083
 H          4.2686772698        3.0615326668       -2.4392073846
 O          0.7205831921       -0.8601838640       -1.8889274141
 H          1.5440554058       -0.3463631366       -1.7423038308
 H          0.1064994561       -0.2513848997       -2.3393586765
