  525
       -891.34983618
 O          2.5156319286       -0.9548706625        0.0621438338
 H          2.1135208246       -1.4817311184       -0.6535842623
 H          3.4700950774       -0.9075277732       -0.0972994999
 O          0.2453284930        1.8434120671       -0.3901285636
 H          0.9982684327        2.3113173775       -0.7771590910
 H         -0.5352613951        2.2484166049       -0.7962355494
 O         -4.4333895131        6.6494643175        3.6110312005
 H         -4.9051229706        6.2248967402        4.3385226104
 H         -5.0456965079        6.7014200560        2.8657971878
 O          2.2995704758       -5.8409934375        5.1293267279
 H          1.7035467980       -5.6626897839        5.8664630355
 H          1.9123213601       -6.5629978658        4.6152259481
 O          1.8890155420       -2.2431675618        2.2043145451
 H          2.3252787209       -1.7102052742        2.8757578360
 H          2.0966437597       -1.7814539647        1.3440280779
 O          2.2038483347        0.8334670223       -2.2520103856
 H          2.5493799715        0.2079945270       -2.9071711180
 H          1.6466629918        1.4780672222       -2.7183454293
 O          5.2457281250       -0.9334165003        0.1559905595
 H          5.4260301985       -0.1817230236        0.7490157432
 H          5.0991090768       -1.6870491978        0.7605244045
 O          2.2604172571        1.4588198561        1.6771094123
 H          1.6738415104        2.2093383860        1.4808710105
 H          2.8844999084        1.4081393602        0.9273146101
 O         -0.2598190049       -0.7697922720       -0.1992517936
 H         -0.0804601816       -0.7980020736        0.7494059026
 H         -0.0439960734        0.1536145579       -0.4293728446
 O          1.2169991792       -7.8181788221       -3.3814797873
 H          1.1587636162       -7.7944805791       -2.4059125151
 H          2.1734634057       -7.9264612386       -3.5864099820
 O         -2.6156273831       -0.7203458177        1.8658986746
 H         -2.3709433857       -0.2577730633        2.6982435966
 H         -3.5805890139       -0.8884127199        1.9410439931
 O         -4.2908969210       -1.3639682650        4.8192245234
 H         -3.7829089729       -0.6438142748        4.4165907762
 H         -3.9416380863       -1.4046580960        5.7322315575
 O         -1.9389913588       -3.4216994066       -2.8374686681
 H         -1.2814160349       -4.0700051220       -2.5132018044
 H         -2.1534539793       -2.8348132681       -2.0816829269
 O         -3.8245665215        1.9252369077       -5.3229222123
 H         -2.9679615391        1.4360307772       -5.2479225208
 H         -3.9387356027        2.2976530152       -4.4280169615
 O         -0.4114149765        3.3896181387       -6.2811970741
 H         -0.8304221884        3.3073333084       -5.4060735289
 H         -1.1628939528        3.3291063463       -6.9030135584
 O          2.8834842680       -1.2938259400       -3.9136385195
 H          2.1547716891       -1.9153728469       -4.0997709759
 H          3.3690390956       -1.1795388985       -4.7567798562
 O          5.4260698530        4.9172784724       -5.9818577720
 H          4.4912400021        4.7977135629       -6.2910403632
 H          5.9606107344        5.0232686008       -6.7676219782
 O         -5.1946085403       -0.9531329640        2.2079332697
 H         -5.5400630938       -0.2920308196        2.8307053001
 H         -5.4646271355       -1.8303616273        2.5366055202
 O         -0.8170587849        4.2034387580        4.0469770198
 H         -1.6870540060        4.1816727555        3.6222659305
 H         -0.1775989534        4.1796986176        3.3164056478
 O          1.7923947873        3.7700824099       -1.5639133381
 H          2.6118560507        3.7326081219       -2.0832511675
 H          1.1520582397        4.2857744892       -2.0889779403
 O         -2.4991117354        1.0090831473       -0.1126764960
 H         -2.5302182111        0.2776910618        0.5489471290
 H         -3.3877395637        1.3649889308       -0.1845153072
 O         -0.8098906728       -2.6466102784        2.0745151914
 H         -1.4764430367       -1.9288247755        2.0369003021
 H          0.0675750235       -2.2560224502        2.2446125043
 O          0.1737602303       -0.7308432362       -3.0541500690
 H          0.6926999994       -0.1659615191       -2.4602828175
 H         -0.7548689834       -0.4485939593       -2.9378183988
 O          0.2644158257       -0.0583838546        2.4301593708
 H         -0.3938525195        0.6665344010        2.3995289037
 H          1.0730096032        0.3355573522        2.0387700897
 O          1.5411793998        2.1653850369       -7.6725552993
 H          0.9130307616        2.5153001657       -7.0060809896
 H          1.0082170680        1.6033492388       -8.2358058771
 O          4.4160823933        3.6139532073       -2.1691787479
 H          4.8352722758        3.1972412263       -2.9393039205
 H          4.3011149018        2.9064789060       -1.4899398432
 O          2.2032004736       -5.0078518105       -2.6205377139
 H          2.6643994440       -5.5594512758       -1.9654097023
 H          2.0268931612       -4.1166088037       -2.2358108952
 O         -2.4620878047       -5.4394679775        0.0961429650
 H         -2.5524124421       -6.1193374094       -0.5881819623
 H         -1.6907849541       -4.8791017714       -0.1675041696
 O         -4.0243875434       -1.6348232908       -3.4761642682
 H         -3.8670528167       -2.1246838530       -4.3046967305
 H         -4.8631489354       -1.1344869802       -3.6083331882
 O          8.1695058679       -0.3882725293        1.0807898103
 H          8.1902897741       -0.9590358047        0.2966714422
 H          7.6512698726        0.3882156479        0.7838769977
 O         -2.2750306726        0.2338245917       -2.6506736887
 H         -2.8920743038       -0.4875420211       -2.8841905634
 H         -2.2450367426        0.3137221224       -1.6780640107
 O         -4.7947565556       -3.5489261176       -1.8465242173
 H         -4.4303615360       -2.8538217920       -2.4487527029
 H         -4.5717909659       -3.2734541783       -0.9509681671
 O         -1.2920161284        2.0557607382        2.0073735887
 H         -0.5581390471        2.6857307932        1.9519993975
 H         -1.5140831366        1.8142310699        1.0890504679
 O          3.8964374072        1.7240109337       -0.4120690921
 H          4.7566920086        1.2833340687       -0.4714847665
 H          3.2883368906        1.2830859094       -1.0474307003
 O         -7.5853442601       -4.9425340368       -0.1480859414
 H         -7.9098195431       -5.3068682662        0.6768114928
 H         -6.8042193142       -5.4733137743       -0.3910611806
 O         -2.5867332331       -1.8215987217       -0.7859301126
 H         -2.8837412359       -2.3504855664       -0.0268683289
 H         -1.6979862177       -1.4526455806       -0.5568898639
 O         -0.2114884167       -4.8954802639        3.2612050675
 H         -0.6533993871       -4.2289744378        2.7020537498
 H          0.4736355882       -4.3903712893        3.7343616494
 O         -1.3058025587       -3.2222111403       -7.3497167881
 H         -2.0604879867       -2.9098137924       -7.8567120965
 H         -1.5279429039       -4.0900055130       -6.9734484333
 O         -0.4991000259       -5.5811230085       -2.2456138043
 H          0.4539687740       -5.4814456321       -2.4030070339
 H         -0.7989298390       -6.3362145340       -2.7633456758
 O          1.4109514987       -2.6619409490       -1.7107569157
 H          0.6836632694       -2.9852776489       -1.1374465747
 H          0.9556895341       -2.0639283054       -2.3370032446
 O          1.5591313622       -5.3708795923        0.3821200800
 H          1.7700861300       -5.3874344542        1.3344923719
 H          2.3081647466       -4.8578497978        0.0145458418
 O          4.1959482397        1.1198672144        5.9683649193
 H          3.9067588492        0.2613521912        6.3383669025
 H          3.5557758472        1.3560938625        5.2550930353
 O          3.7864443159       -0.7992205223        3.7312007777
 H          4.3045181784       -0.1746085166        3.1625562904
 H          4.3808452104       -1.1190235907        4.4141028318
 O          1.0304638602       -7.7866344126       -0.6309339475
 H          1.1576337311       -6.8675682065       -0.3005728168
 H          1.7420914906       -8.2976597363       -0.2409924011
 O         -2.0245699056        0.1201492270        4.2903195478
 H         -1.6621978049       -0.7348396432        4.5977045176
 H         -1.3246987652        0.7812069332        4.4298204176
 O          1.1715216803       -3.2341436314        4.8032999201
 H          1.4311823277       -2.2948832144        4.8843545169
 H          1.1019285910       -3.6355796426        5.6863864640
 O         -5.1979089724       -6.0615801636       -0.8883900957
 H         -4.9171049291       -5.2711602390       -1.3844616234
 H         -4.6054024782       -6.7795069359       -1.1466902594
 O         -0.4541062516       -3.8065676657       -0.2201768442
 H          0.2349879982       -4.4688406417        0.0017189621
 H         -0.5979692429       -3.2829966201        0.6005579102
 O          5.2690540570        0.7481987566        2.2534909724
 H          4.7915616396        1.5893440740        2.0902564904
 H          6.1213724331        1.0159815654        2.6410275772
 O          0.1565351575        2.2164837617       -3.4646856465
 H         -0.4686796792        2.6557470975       -2.8779656296
 H         -0.3687032579        1.6821133160       -4.0910078591
 O         -5.2719014344        1.6437905281        0.6781232507
 H         -4.9579092550        1.3926889532        1.5581265967
 H         -5.2576175416        0.8340965979        0.1126482475
 O          2.9076513860       -3.6288371356       -6.4926280705
 H          2.1574333227       -3.3835824495       -5.9076481843
 H          3.4543208657       -4.2114433101       -5.9359219901
 O         -6.1226150106       -3.4162580691        2.8679585436
 H         -7.0632288854       -3.1258088392        2.8798289364
 H         -5.9455060169       -3.7095933482        3.7826643671
 O          2.8909878653        4.7770652185        0.6199863712
 H          2.4552375715        4.3714544041       -0.1681623289
 H          3.5917161627        5.3332692649        0.2797109783
 O         -5.4161815258        4.7878070603       -1.8816983726
 H         -5.5318586343        4.4845223622       -2.7989290237
 H         -6.1556342698        4.4187673367       -1.3692541968
 O          0.0376391342        5.2778776984       -0.1005936078
 H         -0.5287576811        5.9019071525        0.3899219742
 H          0.7428971956        5.8008634878       -0.5264644653
 O         -2.9404970319        5.9452413434       -2.0863925246
 H         -3.8520178420        5.6484625358       -2.2144907937
 H         -2.4085963659        5.1354828889       -1.9658964245
 O         -6.3802329622        1.9611521443       -2.4848041739
 H         -6.7667752114        2.6523857676       -3.0265160764
 H         -7.0515472608        1.6766698599       -1.8256781911
 O         -8.0360035535       -1.4424342167       -2.0263412820
 H         -8.0184245911       -2.3218885960       -2.4509181375
 H         -7.6013936102       -1.5897159911       -1.1757608754
 O         -1.4326592684       -8.6864956868        0.2242649825
 H         -1.5887803213       -8.1680980480        1.0350151586
 H         -0.5616371320       -8.4056120417       -0.1107055587
 O         -6.5425083171       -2.4298090724        0.1997081054
 H         -7.0418535413       -3.2589394767        0.0824038294
 H         -5.7400434436       -2.6929671952        0.6812327307
 O         -1.4587496094        0.8230550432       -5.2045050014
 H         -1.4694646407       -0.1182369413       -4.9532167181
 H         -1.1989313032        0.8321912314       -6.1455285468
 O         -3.7821565911        3.7745358341        0.0748952195
 H         -4.3006664783        4.2437692822       -0.6028816953
 H         -4.3406628164        3.0174323785        0.3353444329
 O         -7.1151091154        3.5660556268       -0.0876179123
 H         -7.9124115402        3.0824355118       -0.3184679834
 H         -6.5121842501        2.8910069715        0.2748094816
 O          0.0418621248        5.2709264329       -3.0538494188
 H          0.3298525085        5.5541893782       -3.9474809832
 H         -0.2151162069        6.0805938478       -2.5774409896
 O         -3.7279535396        2.4611883235       -2.6794147028
 H         -4.6368332865        2.2338634457       -2.4375373363
 H         -3.1962549553        1.6361405478       -2.6582800752
 O          2.2959805006        3.6146123745       -4.3288913442
 H          1.4058888078        3.2529157621       -4.1520978076
 H          2.8805817018        2.8236506797       -4.3768946622
 O         -5.7295822815        5.5807296097        1.4155967655
 H         -6.3599857168        5.3314189649        0.7344382307
 H         -5.7429821970        4.8240292381        2.0405897451
 O         -2.9726750643        4.6141596423        2.4887563784
 H         -3.5625239675        5.2911086481        2.8682076127
 H         -3.3334741219        4.3534895098        1.6172062199
 O         -3.9757520472       -3.4177051966        0.8825448366
 H         -3.7329242494       -3.3282263919        1.8264405550
 H         -3.5353225716       -4.2451451899        0.5984494159
 O          6.4053335308       -4.1165144441        4.5310740481
 H          6.8820756021       -3.4367678511        4.0360815461
 H          6.1147859594       -4.7794461828        3.8703772570
 O          1.3327678042       -0.5967036397        4.7528663443
 H          0.8004977906       -0.3732045872        3.9465738572
 H          2.2559415791       -0.4330808273        4.4993822830
 O          6.8128012913        4.0400638541        1.1414535149
 H          6.9733979210        4.6540655787        1.8959181283
 H          6.6674043030        4.5876824073        0.3443979997
 O         -0.9473483179       -2.3745584042        7.5726141793
 H         -0.2518711526       -1.7029908283        7.6671418464
 H         -1.1834855912       -2.3616499540        6.6167732755
 O         -3.3196707721       -3.7221926970        6.5791838221
 H         -3.1265142032       -3.8401868612        7.5079245186
 H         -2.6902627589       -4.2961047161        6.0913417794
 O         -5.6724714106        3.5887004167        3.2462164377
 H         -4.8505065131        3.0668110542        3.0745588077
 H         -5.5421331484        4.0034938157        4.1119861656
 O          7.1485600655       -1.8665575186        3.0174520336
 H          7.5701590784       -1.2891795702        2.3309867979
 H          6.9002806110       -1.2565508304        3.7309326059
 O         -4.9410403297       -0.4300700611       -0.9043504263
 H         -5.5634770043       -1.1172081951       -0.6419575998
 H         -4.0645287019       -0.8606692870       -0.9280074703
 O         -7.8341973244       -0.2133987050        1.4366030651
 H         -7.1855357575       -0.8747341868        1.1349951936
 H         -7.4087300865        0.2937757057        2.1443817729
 O         -6.9227130273       -1.5218094947        5.4108645509
 H         -5.9989703275       -1.4114683159        5.0991000120
 H         -7.1068426359       -0.7438008142        5.9389921932
 O         -3.4791330905       -5.4690233343       -3.5274654920
 H         -3.2990103046       -6.1554872238       -2.8785228887
 H         -3.0562769424       -4.6410729562       -3.1955527729
 O          5.1090368576        0.5224097843       -2.5965191098
 H          4.8293759240       -0.3618457433       -2.3168447402
 H          4.5811388373        0.7765302396       -3.3750008496
 O         -2.9441853974       -7.5712702122       -1.6127303986
 H         -2.4841115671       -8.0882045574       -0.9013107802
 H         -2.5090598918       -7.8656752610       -2.4256017353
 O         -8.3318462698        1.1044097001       -0.8775381560
 H         -8.5801094885        0.3512883958       -1.4280506755
 H         -8.1764286732        0.7147775080        0.0082749483
 O          0.9080723434        6.1610820276        5.2973694255
 H          0.0679068296        6.4944561013        4.9560953051
 H          0.6601147437        5.4475802518        5.9121177037
 O         -2.4175470916        4.9316770314        6.1143719954
 H         -2.1355354331        5.5910353101        5.4500377994
 H         -1.5842205175        4.6133622216        6.4974796531
 O          4.1164871047       -4.9968357582       -4.4587016691
 H          4.9017648739       -4.6040279880       -4.0664108604
 H          3.3859059551       -4.9153859431       -3.7955678468
 O          2.6575665895        8.0223880935        4.0355167429
 H          2.1260664442        7.8735055629        3.2303460409
 H          2.1864095727        7.5493321863        4.7322158452
 O          5.3743270080        6.5091620605       -3.6895595082
 H          5.8312993068        6.0681402372       -2.9608419118
 H          5.5230361113        5.9849581732       -4.4911125548
 O          7.4019890674       -1.7943019746       -1.1553145559
 H          7.6379095187       -1.1397851276       -1.8425435785
 H          6.5323678006       -1.4731880676       -0.8105655890
 O          4.4593441602        3.2492131202        2.1405857404
 H          5.3018003609        3.5468636480        1.7426107865
 H          3.7611397184        3.7110878136        1.6358923227
 O          2.7555240611       -4.7139627707        2.6382897163
 H          2.5801372405       -4.9875186942        3.5480907447
 H          2.4346453526       -3.7892439778        2.5412722999
 O          5.9479372551        2.8640273272       -4.2951576945
 H          6.2054621281        2.1484162870       -4.9129290661
 H          5.7965065471        3.6374819644       -4.8661254465
 O          2.9207944802        4.5128545115       -6.7198312343
 H          2.6180745901        4.1769748918       -5.8399854324
 H          2.6554699744        3.8317343323       -7.3469850346
 O          6.6467429710       -1.5938076631       -5.0523106536
 H          6.5692513777       -2.4237605935       -4.5549956803
 H          7.0763519538       -0.9764830952       -4.4323004773
 O          3.5410269961        1.3408396976       -4.7146740950
 H          2.6785897001        0.9051409400       -4.9348275815
 H          3.9861814179        1.4186675075       -5.5733097670
 O         -5.7416433721       -4.1031435209        5.4637522201
 H         -4.8948427827       -3.8928158500        5.9073949675
 H         -6.3609941216       -3.4133890919        5.7315398724
 O          6.2674243468       -2.1493982662        6.8667585508
 H          6.5377287843       -1.4292681962        6.2768743811
 H          6.4387331802       -2.9672881865        6.3896924010
 O         -3.2852864548        2.4134255041        5.6205970900
 H         -2.6573393198        1.8964214834        6.1393881969
 H         -2.9624911201        3.3328334788        5.6719659808
 O         -1.8762796395       -6.9310929027        2.2581781495
 H         -2.6373707233       -6.8998554762        2.8407574732
 H         -2.0635241633       -6.2874222590        1.5413224334
 O         -1.9774470316        3.9245601389       -4.1580929582
 H         -1.3063321284        4.4679329899       -3.6919662234
 H         -2.5194537249        3.4842344355       -3.4857483387
 O         -0.0893521738        1.8680105885        4.9635751049
 H         -0.4001266210        2.7680980516        4.7077088275
 H          0.8680988391        1.8531301905        4.7746005077
 O          6.7045825628        1.5826020198       -0.0615372705
 H          6.7458671061        2.3866169790        0.4757787960
 H          7.0554967550        1.8578684702       -0.9293374225
 O         -1.3670337753        6.5563028128        1.7407966050
 H         -2.0899484023        7.0113761742        1.2533555824
 H         -1.8063885890        5.7164539861        2.0233078568
 O         -7.2883124240       -3.9058046947       -2.7412323240
 H         -7.7177972340       -4.4675856082       -2.0891623150
 H         -6.3821331218       -3.7439959113       -2.3882742349
 O         -3.2604084839       -3.4571149081        3.4689069661
 H         -3.8099056483       -2.8101392866        3.9540834342
 H         -3.5446574908       -4.3523523059        3.7276697998
 O          7.6570213141        2.8579035167       -2.2531839153
 H          7.6238871342        3.7460618045       -1.8903050838
 H          7.0423846310        2.8626669102       -3.0205837790
 O         -1.5445728611        3.6121345948       -1.4089304611
 H         -0.9232226928        4.2173554096       -0.9547168214
 H         -2.3232158004        3.4969041051       -0.8340538975
 O          1.2321050159        0.2669837860       -5.3928926795
 H          0.8004200762       -0.1459631897       -4.6204729549
 H          1.1594139937       -0.3601567172       -6.1239455174
 O          6.4278979237       -0.0862840435        4.9998945649
 H          5.6673561028        0.4164895921        5.3644234664
 H          7.0406314731        0.5818838947        4.6673158320
 O          2.7076255123        6.2493633350       -3.5881516055
 H          2.5830999669        5.3163218390       -3.8358764242
 H          3.6677830886        6.4271206149       -3.6476542107
 O         -6.4944902198        0.9804225626        3.6307686507
 H         -6.3839245086        1.9227065367        3.4142971757
 H         -6.2289104417        0.9038886618        4.5637784673
 O          1.0425236968       -3.0357408636       -4.6785680758
 H          0.1992444698       -2.5314102066       -4.7377341015
 H          0.8301112200       -3.9511774588       -4.4462621979
 O          0.7778482804        3.7455698546        1.9121263183
 H          0.6064588666        4.2795275750        1.1065833825
 H          1.5331674050        4.1458523018        2.3937509570
 O          6.8294198371        5.5116771452        3.3366991561
 H          6.5843524027        4.9152047115        4.0538939875
 H          6.0044584536        6.0016006982        3.1471059612
 O          3.8396580955       -7.7009734675       -3.7313390433
 H          4.0372558904       -6.8562619773       -4.1667538033
 H          3.9296426390       -7.5269604483       -2.7791073213
 O         -1.8945975275       -5.3404341581       -5.6967444423
 H         -0.9740302217       -5.4537309357       -5.4004380348
 H         -2.4574310744       -5.5352998546       -4.9172608610
 O          7.6068718185        0.0622431567       -3.0861092889
 H          6.6623649352        0.3339063836       -2.9027721836
 H          8.1195297272        0.8695515232       -3.0107158275
 O          7.3671273841        1.9753258239        3.4596284505
 H          7.8898305423        2.4903244057        2.8437703609
 H          6.7586811748        2.6040659782        3.9141917158
 O         -1.4136651027       -7.7944142013       -3.8882391016
 H         -1.5887954219       -7.6146933974       -4.8140545053
 H         -0.4856479645       -8.0767331622       -3.8145934372
 O         -1.2249228939        0.3365472705       -7.8372642377
 H         -0.4741366131       -0.2679523733       -7.8695369124
 H         -2.0205510546       -0.2326791737       -7.7716728257
 O         -5.5123079305        0.1986022460       -6.4924168805
 H         -5.9581231700       -0.2096883483       -5.7395299536
 H         -4.9333975837        0.8770289845       -6.0949302051
 O          3.7346927027       -6.7725109915       -1.1481118202
 H          4.6299309858       -6.4053277157       -1.1290975807
 H          3.5615303402       -7.0706213184       -0.2324016712
 O         -3.7510917714        1.8199440814        3.0061715199
 H         -2.8833906537        2.0169984725        2.6050117868
 H         -3.5679730506        1.8279620110        3.9610296590
 O         -1.3173788078       -1.8749292805       -4.9286987804
 H         -1.6787483695       -2.4022785643       -4.1848568017
 H         -1.5600119992       -2.2965934100       -5.7646448512
 O          4.4052333297       -2.1570973243       -2.0756043130
 H          3.7178656248       -1.9300959315       -2.7492116979
 H          3.9798414807       -2.7030406717       -1.3878936408
 O          0.8944704990       -1.5743417147       -7.4656064317
 H          1.7016327893       -2.0857455432       -7.5617645018
 H          0.1783683004       -2.2259491686       -7.3817318134
 O         -2.7076371322        2.9227615926       -7.5901898867
 H         -2.4254458477        2.1214128800       -8.0414286621
 H         -3.2160175183        2.6168622561       -6.8116871505
 O          3.7461216806       -3.9230644046       -0.1787712129
 H          3.9680917886       -3.5528711171        0.6896157285
 H          4.5091384852       -4.4719282811       -0.4433394235
 O         -6.2963991320       -0.3599721702       -3.8317166150
 H         -6.9676109801       -0.8092703373       -3.2867850634
 H         -6.1892414036        0.5105788576       -3.4023042929
 O          4.8284051740       -2.7464102648        2.0547312404
 H          4.2110495009       -2.3538790601        2.6896094276
 H          5.7216909474       -2.5382979447        2.3987806761
 O          3.3915816949       -7.4813802641        1.4297098008
 H          4.1086372089       -7.0102094366        1.8750943181
 H          2.6068762121       -7.3764053916        1.9943597650
 O         -5.4861994070        0.9575979044        6.2181153813
 H         -4.7978473350        1.6156859002        6.0095699805
 H         -5.0109230110        0.2759821000        6.7080550554
 O         -3.5283590541        7.0782415260        0.3391312228
 H         -3.3306015327        6.7333655076       -0.5503023884
 H         -4.3043646629        6.5911759650        0.6523088830
 O          6.3295850017       -3.5175832833       -3.0572642864
 H          5.5442128014       -2.9810663272       -2.7206778147
 H          7.0676425000       -3.1065201774       -2.5832999074
 O          6.5649915722        1.1316972890       -6.2314781832
 H          5.7983688908        1.2029310337       -6.8199280997
 H          6.6944206029        0.1939304540       -6.0616961090
 O          5.9505829698       -5.2554388850       -1.0404380496
 H          6.6029735244       -4.9893582044       -0.3799240758
 H          6.1579971465       -4.7556119139       -1.8573030495
 O          0.7221667379       -5.7294042634       -4.9845373586
 H          1.4010143841       -5.7428821699       -5.6601966227
 H          0.9465635476       -6.4438455327       -4.3460878011
 O         -3.4316994894       -1.2209051578       -7.4841528962
 H         -4.2101134094       -0.6455172937       -7.3494813317
 H         -3.5738841768       -1.9214739178       -6.8233091437
 O         -3.8137317522       -3.2102978730       -5.6569412485
 H         -3.1568597228       -3.9199467226       -5.6631433270
 H         -4.6707393952       -3.6767838475       -5.5228317970
 O          0.1166594127        4.2115018498        7.0936701710
 H          0.2281704540        4.5501409076        7.9817167853
 H          0.6898330137        3.4165801779        7.0428322231
 O         -1.7310970636        7.0063905875        4.4092436733
 H         -2.6523047241        7.2840823475        4.3606029952
 H         -1.4584410836        6.9342858161        3.4747809061
 O          3.8983319799       -3.3149247394        5.0342316157
 H          3.3984317804       -4.1217642020        5.1928540244
 H          4.8285891911       -3.5983319106        4.9261249583
 O         -8.4733072319       -2.2683731453        3.2104681423
 H         -8.1363552138       -1.9168797063        4.0507398487
 H         -8.5206733437       -1.5195057394        2.5943363214
 O         -5.5645393154       -5.8651304581        1.8387744095
 H         -5.7681732691       -4.9240234018        2.0085328721
 H         -5.2438957635       -5.9367413516        0.9253180482
 O          0.3561515293       -4.6757634139        6.9370380003
 H         -0.0637041038       -3.9213556570        7.3966329193
 H         -0.3766356079       -5.1306803694        6.4934765147
 O          1.0423776806       -7.2412080714        2.9549532906
 H          0.4125799041       -7.9391850670        2.7713917249
 H          0.5090890773       -6.4187197307        2.9230267515
 O         -0.4904386788        7.6596366316       -1.7582183223
 H         -1.4346444203        7.8181554031       -1.7320923734
 H         -0.1600299864        8.0538982909       -2.6029803032
 O          1.4812177212        7.0335182132        1.8152481121
 H          0.5257628452        6.9125055837        1.8202650575
 H          1.8847859728        6.2465349622        1.4174864473
 O         -5.7589767478        4.0283666666       -4.5213463129
 H         -5.0875145350        4.5936147473       -4.9599634165
 H         -5.7430205201        3.2102806406       -5.0244934701
 O          2.5054387097        4.7190477007        3.6617636226
 H          1.9514141713        5.2810556972        4.2404435234
 H          3.2330134047        5.2757521710        3.3268309601
 O          2.5073926024        2.0792463311        4.2027870499
 H          2.5724089916        3.0496136932        4.1303408192
 H          2.5244663228        1.7648688949        3.2684530349
 O         -1.3138710658       -2.3378301255        4.9336990700
 H         -1.9495327329       -2.8211925495        4.3693899844
 H         -0.4245610121       -2.6571968252        4.6883353347
 O          1.8438595494        2.1676198322        7.3593463925
 H          2.7334572435        2.1049117440        6.9932850893
 H          1.5285355322        1.2507614402        7.4495383604
 O         -5.7859685994       -4.7886694828       -4.9144046385
 H         -5.1087583517       -5.2077151451       -4.3586539615
 H         -6.4701743298       -4.4688451109       -4.3080507071
 O          4.0623639357        1.1392065664       -7.3652503887
 H          3.9652853176        0.1889263347       -7.1845727219
 H          3.1659626516        1.4825234678       -7.5319372603
 O         -1.7332615359       -5.5079376533        5.3251853919
 H         -2.4708527963       -6.0435486277        5.0138790734
 H         -1.2070001462       -5.3063453614        4.5101761934
 O          5.3218640662       -5.5065972671        2.4313033045
 H          5.8131830762       -5.0042696705        1.7726438171
 H          4.4321499770       -5.0904180573        2.4885952526
 O          2.0231559608        6.8428272655       -1.1463046164
 H          1.3633699274        7.5420624477       -1.2082689554
 H          2.2539297685        6.5947158199       -2.0823937026
 O          4.2056414409       -1.3277461634       -6.2250943236
 H          3.8432671598       -2.2086278567       -6.4639789676
 H          5.1121490752       -1.4623416341       -5.8932957188
 O         -1.3230261505        1.0957447642        7.1533618638
 H         -0.7679165249        1.3783102088        6.3863258183
 H         -0.7075923580        0.7227494759        7.7865587229
 O         -4.1415723106       -6.0039285076        4.0218960979
 H         -4.6536862979       -6.0890640443        3.1781477315
 H         -4.8018992051       -5.7591594201        4.6790892532
 O         -5.1287951965        4.8848478889        5.6636973317
 H         -5.6001962690        4.5491426755        6.4258735131
 H         -4.1859879018        4.9194551288        5.9099216425
 O          4.3608642955        7.1958090860       -0.0059055651
 H          4.6576713554        8.1001569142       -0.0986658444
 H          3.4537362779        7.1559527116       -0.4116830517
 O          3.6451322541       -1.3990727629        6.8688553391
 H          3.5709632878       -2.0954680128        6.1774052934
 H          4.5214425180       -1.5814089453        7.2469778235
 O          1.0927887161       -0.4876850708        7.3666827330
 H          1.9598420699       -0.8920865110        7.5233140982
 H          1.0306135628       -0.4576832386        6.3834344838
 O          7.3137536296       -3.7906634620        0.7923542961
 H          7.6986349245       -3.4297231238        1.5940867972
 H          7.4280609299       -3.1085134189        0.1122098416
 O          4.3904645911        6.4804441659        2.7467291437
 H          3.9222695942        7.1586338452        3.2839499931
 H          4.3278153837        6.7730335835        1.8252334327
 O         -3.6401466468        5.1796279413       -5.7713850051
 H         -2.9934481372        4.7103070101       -5.1883908953
 H         -3.5078439258        4.8069950799       -6.6461807223
 O          5.4510733883        3.4139227497        4.6198645616
 H          5.0241026537        2.8358370939        5.2589524367
 H          4.8839066858        3.4257909079        3.8165156653
 O         -1.9706147683        7.1347705653       -4.4325447004
 H         -2.3344595031        6.7708773205       -3.6104411091
 H         -2.4947656760        6.7403777150       -5.1364993151
 O          0.5899678581        5.8161868168       -5.6384293779
 H          0.1667121521        5.0051574957       -5.9805775192
 H          1.4610909893        5.8403454108       -6.0448809572
 O          6.0982385664        5.3271869540       -1.1447212199
 H          5.5721392788        6.0541083059       -0.7762730140
 H          5.4409720132        4.6755734678       -1.5104616468
 O         -3.3186739772       -0.7811179562        7.2502336578
 H         -2.6682533356       -0.0593123184        7.1570832363
 H         -2.7935121433       -1.5332921588        7.5523327774
 O          0.6055210574        8.2333515980       -4.0737187447
 H         -0.1368470324        7.8626295929       -4.5765792915
 H          1.3336205316        7.6028697188       -4.1678671586
