  144
       -244.36000247
 O          1.1471244904        1.0212549157        1.5622011621
 H          1.5524641340        0.1403518028        1.4084022174
 H          1.8714234369        1.6110576753        1.8543738963
 O          2.7795911025       -2.0396238384       -3.5067435608
 H          1.8925018521       -2.1262062979       -3.8942890565
 H          3.0158769020       -1.1033360751       -3.6267574501
 O         -0.7742197896       -4.7400346606        0.5110226636
 H         -0.5378128869       -3.9657318477        1.0637800588
 H         -1.7321917001       -4.8470845664        0.6693431493
 O         -0.4989213262       -4.0123545793       -1.9781964854
 H         -0.6762917361       -4.3000646484       -1.0371505506
 H         -0.3694379197       -4.8218420745       -2.4733232978
 O          2.2118749426       -4.7590363814        0.8657157200
 H          2.2248555223       -4.1423656024        0.1133987102
 H          1.3025419457       -5.0709216428        0.9216949589
 O         -6.8193849793       -0.6459462642       -1.2984942073
 H         -7.6518282100       -1.0125124485       -1.5974677485
 H         -6.4683939620       -0.1068636009       -2.0788891631
 O          1.3389029991        4.6750712736        0.8524046930
 H          1.3901297446        5.4656955139        0.3169554235
 H          1.1817281598        3.9205168965        0.2295612005
 O         -3.3587053752        0.8881955378        3.6666101735
 H         -2.4141366544        0.6767619999        3.5635129462
 H         -3.4440157530        1.8493307174        3.4855921398
 O          6.7029025969        1.3514379458       -0.7874835007
 H          7.6339689621        1.5668076205       -0.8270464673
 H          6.4636661987        0.9766056701       -1.6808142175
 O          0.0582087414       -1.8963209958       -3.8022099721
 H         -0.3227734215       -2.6206005984       -3.2908832850
 H          0.3083696135       -1.2055193072       -3.1379077505
 O         -3.0068567013       -2.2789574608        3.0344479406
 H         -2.9416184616       -1.8982547518        3.9127284751
 H         -3.5589001969       -1.6670177913        2.5240421629
 O          0.7844403889        2.5193553310       -0.6117812712
 H         -0.1862610812        2.6438493667       -0.5810549589
 H          0.9668200975        1.8596956626        0.0933870506
 O          4.4801480472        0.6374483308        2.8435807047
 H          4.2254108744        1.5066997840        2.5009600541
 H          4.7421811363        0.1109019517        2.0687546635
 O         -0.7639993316        0.1826976192        3.2634064195
 H         -0.3100451996       -0.5591389932        3.6851073247
 H         -0.1257618815        0.5295292034        2.6035713059
 O         -1.5868845659        0.0024978891       -4.9154651180
 H         -1.2123646215        0.7797021866       -4.4699403469
 H         -1.0140321584       -0.7456428837       -4.6664743193
 O          0.7451218725       -0.0213407434       -2.0706360554
 H          0.3586663821        0.7792533784       -2.4676848220
 H          0.1865593384       -0.2474565245       -1.2648880312
 O          4.2268506073        2.5085742811       -0.6548509546
 H          5.1795119538        2.3369747828       -0.6271538017
 H          3.8299794437        1.6184435282       -0.8171119524
 O          5.6324141390       -0.7173115359        0.7188091804
 H          5.4090341594       -1.3114150978       -0.0132093437
 H          6.0904333476        0.0321798355        0.3001177489
 O         -1.7505900368        2.9126971549        0.0203351044
 H         -2.3069408369        2.1170262120        0.0138504350
 H         -1.5140317710        3.1376034407        0.9429236148
 O          3.1776667081        2.8025522632        1.7772742051
 H          2.6581666686        3.6172063492        1.7776293820
 H          3.5807108386        2.7607238882        0.8776514865
 O         -4.5389416415        2.6296429754       -1.9370503566
 H         -4.9167279427        3.1257988665       -1.1969521729
 H         -4.0601861193        1.8997422116       -1.4997010297
 O          2.4287760667        2.7792344434       -2.7381663935
 H          1.7518089689        2.6169628327       -2.0517617051
 H          3.2174527999        2.9953671007       -2.2189542778
 O         -3.5390857050        3.4134391177        2.7937547148
 H         -2.6325371164        3.7380408541        2.6849026743
 H         -3.9666735076        3.4349882894        1.9255121117
 O          3.0132128423       -3.0955273929        2.8423919216
 H          2.8313242685       -3.8416729713        2.2345464286
 H          3.9823152759       -2.9930294500        2.9186702912
 O          2.4681396698        0.5918202419        4.5474702023
 H          3.1976561656        0.5368502366        3.8844671438
 H          2.8886777164        0.6925724028        5.4012056436
 O          1.0958258376       -1.7423852328        4.2051633210
 H          1.5636806641       -0.9040380224        4.3808051317
 H          1.7956449793       -2.3500196931        3.9099913959
 O          3.3978437907        0.6433662120       -3.9890460532
 H          2.9830058598        1.3923389959       -3.4923487911
 H          3.2713186654        0.8325938225       -4.9186272447
 O         -6.8095503230        0.9291042004        0.8271747508
 H         -6.8101614889        0.3752628363        0.0039594751
 H         -7.6787541771        0.8412179253        1.2188679458
 O         -5.1094856452       -2.4874180285        0.0329079406
 H         -4.9264003001       -1.8168810902        0.7033700380
 H         -5.6768513862       -2.0437809709       -0.6107203681
 O         -2.1319894001        3.8254292526       -2.5175050064
 H         -3.0451428935        3.5041805847       -2.6059773171
 H         -1.9511895822        3.7563110536       -1.5662381393
 O         -0.4303423023       -2.5908464277        2.0640473238
 H         -1.3326089618       -2.5032234703        2.4152004114
 H          0.1683552136       -2.4132580130        2.8063639640
 O          4.9147073256       -1.8239948401       -1.7088302465
 H          4.2246852386       -1.1338729861       -1.5659384798
 H          4.5071801811       -2.4725794432       -2.2881062512
 O         -0.4049847629        2.0470436313       -3.4338360683
 H         -1.0687679649        2.7161763761       -3.1281260716
 H          0.3561284053        2.5503067680       -3.7323083926
 O          6.0025958494        0.2485404262       -3.0633883904
 H          5.1409272366        0.5224196888       -3.4218818905
 H          5.8285368859       -0.6346380606       -2.6846308320
 O         -0.8088575842        3.7889289756        2.3716075083
 H         -0.0800473543        4.2789903868        1.9579132941
 H         -0.4033884377        3.3313090477        3.1390050063
 O         -3.4005133525       -4.4380744006        1.1362907323
 H         -3.3173268005       -3.9209766949        1.9464190078
 H         -4.0191826508       -3.9449989490        0.5785801431
 O         -5.3864044952        3.2971157606        0.6197274153
 H         -5.8547811144        2.4483412983        0.7212111200
 H         -5.9698047479        3.9766621105        0.9595009944
 O          3.1857320232        0.1069960530       -1.0416494716
 H          3.0086413758       -0.3094416553       -0.1768027072
 H          2.3219326139        0.0948274990       -1.5147194203
 O          5.5838712545       -2.2627344860        3.0060501127
 H          5.5254739226       -1.5277601018        3.6210198079
 H          5.7442270797       -1.8522790820        2.1399704325
 O          0.3064574938        2.4196584894        4.4163009534
 H          1.1976014141        2.0432552477        4.3987263424
 H         -0.2751295848        1.6522020627        4.2910101510
 O         -5.9836835706        0.7515213702       -3.2882502788
 H         -5.5290066540        1.5361620849       -2.9298605953
 H         -5.2819840775        0.2130700541       -3.7109214720
 O         -4.0388651052       -0.8119679726       -4.3073436990
 H         -4.2993520663       -1.3033690234       -5.0863606626
 H         -3.1462816489       -0.4430348721       -4.5140220870
 O         -4.5238011834       -0.2954285040        1.7102496865
 H         -4.1081678479        0.2019008986        2.4801688852
 H         -5.3904642523        0.1209727398        1.5743499945
 O          2.2955755385       -1.2884591604        1.0366791520
 H          1.9829691872       -1.8818389409        0.3259067652
 H          2.5868850867       -1.8809427356        1.7654218121
 O          1.8198276267       -2.8523949581       -1.0972926568
 H          0.9546756079       -3.1861194420       -1.3929853648
 H          2.2622372062       -2.5335988578       -1.9099540522
 O         -0.7996035331       -0.8087388986       -0.0357661658
 H         -0.5497923602       -1.2821571611        0.7748680679
 H         -1.4289182845       -1.3762479992       -0.4957241337
 O         -2.9317984422       -1.8307795002       -1.6192475487
 H         -3.6574978268       -2.2078636500       -1.0922030893
 H         -3.2144612686       -1.8219397564       -2.5396323057
 O         -3.2703185387        0.7087672815       -0.6599045379
 H         -2.9481513453       -0.0685470752       -1.1487973820
 H         -3.7016680395        0.3720995833        0.1412953684
