  129
       -218.89454879
 O          0.4270728669        4.3937773546        2.4919420260
 H         -0.0130134845        4.4744935507        1.6205744398
 H          0.2473718008        5.2054710660        2.9697520599
 O         -0.2817708032        0.7401612733       -5.9719174687
 H          0.4344463213        0.5959387303       -5.3154194714
 H         -0.1619141979        1.6229129811       -6.3226508874
 O         -2.5200169182        1.6343979120       -2.6924293179
 H         -1.8788174553        2.3674778289       -2.7977399559
 H         -2.5046829096        1.0684603644       -3.4935906510
 O         -0.3163584216       -0.0105058655       -2.0801809851
 H         -1.0823164730        0.5767985199       -2.1672642997
 H         -0.5902460451       -0.8755458677       -2.4514901661
 O          1.9928632275        2.9774070665       -2.7359377067
 H          2.8068253033        3.4775643630       -2.6744886517
 H          1.9748122506        2.3726989078       -1.9571344416
 O          4.6792847186        1.7086587140       -0.1522096189
 H          5.2569452243        1.3244170357       -0.8322299540
 H          3.7717801348        1.5092642363       -0.4437803976
 O          3.4539097904       -0.5030384548       -2.3587557206
 H          2.8342983169       -0.2174865670       -3.0529444390
 H          4.2883181989       -0.0344220227       -2.4938572188
 O          6.0388695779        0.5005102144       -2.2285988944
 H          6.7800013988        0.8190862521       -2.7427464677
 H          6.3046698898       -0.4020933884       -1.8928463970
 O         -2.5932187431       -1.9705208999       -0.8236409384
 H         -3.3061629732       -1.8991264832       -1.4941289401
 H         -2.4811281649       -1.0442086422       -0.5220171785
 O          1.6307479292       -1.4146127195       -0.3802423305
 H          2.3653837317       -1.8704451388        0.0718545949
 H          1.5770720397       -1.8227591223       -1.2651025844
 O         -0.4011522467        0.0142124048        4.2911437536
 H         -1.1571273205       -0.1199763241        3.6771750217
 H         -0.2611998211       -0.8758153764        4.6902909797
 O          3.3887287494       -3.0378117494        0.9082680430
 H          3.0165566665       -2.9252530148        1.8040945180
 H          4.3218581319       -2.7685964699        0.9956099812
 O         -1.0841133809        2.7136109156        4.3036259784
 H         -0.7590062872        1.8147661906        4.4781354290
 H         -0.4320188637        3.1456878425        3.7368996155
 O          1.4886439138        0.5743761707       -3.9393239620
 H          1.7118771326        1.4991953562       -3.7505588329
 H          0.8411429743        0.3292807096       -3.2319089253
 O          0.0778833397       -2.5396834647        4.8142072883
 H          0.8970957436       -2.6953513292        4.3248760080
 H         -0.6214741670       -2.9665760137        4.2807353188
 O         -4.3479647786       -1.2385270859       -2.7075013673
 H         -3.8709079810       -0.9125101215       -3.4795464316
 H         -4.9622768072       -0.5363776204       -2.4390366002
 O          1.9921721313        0.2443508761        3.2173378022
 H          2.3111903939        1.1041918119        3.5404419688
 H          1.0811936138        0.1685908926        3.6039958401
 O         -3.0679678824        3.1807608159        0.5480666005
 H         -2.8451754616        2.2347141414        0.3840646636
 H         -3.7482007273        3.3624676305       -0.1381567646
 O         -2.3954115581       -0.1770273852        2.5056586135
 H         -2.8626864762        0.6631461425        2.6821099345
 H         -1.7611756659        0.0017264464        1.7611612704
 O         -0.7091562231        3.6050221812       -2.5133360397
 H          0.2252564990        3.4289892659       -2.7003906890
 H         -0.7350294975        3.9856577615       -1.6218759824
 O         -1.6455780487       -3.5551874948        2.9815346169
 H         -1.1389514038       -3.4010259621        2.1670957421
 H         -2.5514269329       -3.2904663753        2.7792581806
 O         -0.4162836153       -2.9629136098        0.5693843053
 H          0.2719933678       -2.3076190651        0.3406441418
 H         -1.1943768809       -2.7258298112        0.0458459398
 O         -3.4252700254        2.2607439589        3.0902364522
 H         -3.3699379072        2.7741812811        2.2664679363
 H         -2.6509287487        2.5170554917        3.6369772305
 O         -5.3572711093       -0.1866533617        0.7743575807
 H         -5.6182875320        0.2803057060        1.5973191929
 H         -5.0060681679       -1.0570442320        1.0723509580
 O         -2.3291035146       -0.2902658080       -4.5450492492
 H         -1.7115097366        0.0591337077       -5.2151033957
 H         -1.8973291487       -1.0931961004       -4.2127098296
 O          2.6411708280        2.9003410587        3.4947366221
 H          3.4309908217        3.1393872807        3.0064086383
 H          1.9142062810        3.4318040709        3.1387592773
 O         -4.6442966417        3.0810521952       -1.6033244839
 H         -5.3018040723        2.3690359190       -1.5791367255
 H         -3.9380271659        2.7398346311       -2.1747462104
 O          5.8523327240       -1.9754104203        1.3072558086
 H          6.5247079818       -2.1990287478        1.9502453675
 H          5.4556523910       -1.1083240248        1.6007940995
 O          2.5979235893       -2.3523671401        3.4305809229
 H          3.2266746384       -2.4435309950        4.1472255620
 H          2.4042989223       -1.3910192830        3.3547880330
 O         -0.9654671118        4.6765699354        0.1258970537
 H         -1.7601949801        4.1006444028        0.3091348647
 H         -1.3124657504        5.5572825791       -0.0252477717
 O         -5.7853197026        0.9399004632        3.1631900813
 H         -5.0077940526        1.5244867383        3.2343877112
 H         -5.6844000083        0.2782369015        3.8497362136
 O         -3.8606372921       -2.2228775265        1.6397061564
 H         -3.4417611363       -2.4010968632        0.7815690779
 H         -3.3175494741       -1.5089032284        2.0475367363
 O         -2.9941219620        0.6299513720       -0.2063277995
 H         -3.8954368623        0.3995701209        0.1112453657
 H         -3.0598620017        0.9092846453       -1.1337407814
 O         -1.0305866067       -2.3580252582       -3.1354422903
 H         -1.5777301021       -2.6536373338       -2.3947887421
 H         -0.1617231792       -2.7916129170       -3.0432771641
 O          4.7082751032        0.2381563252        2.0721964258
 H          3.7814842683        0.1735684957        2.3308782298
 H          4.7456995026        0.8397070070        1.2915704925
 O          4.2050215674       -3.0297198883       -1.9967189093
 H          3.9376045161       -3.2712767140       -1.1040090013
 H          3.8967038513       -2.1042255689       -2.1339485329
 O         -6.0785361861        0.6749838355       -1.6272620929
 H         -7.0117258004        0.5525831847       -1.8007805939
 H         -5.9164266820        0.3345116590       -0.7192461878
 O          1.4216454735       -3.2226010333       -2.4380841525
 H          1.3848202900       -3.9150895348       -1.7328011379
 H          2.2967786999       -3.3081013384       -2.8328940521
 O          6.6038686481       -1.9027557563       -1.3587546461
 H          6.4452301925       -1.9134974144       -0.3997134233
 H          5.8843522851       -2.4475986922       -1.7363014810
 O          1.4396264707       -4.7679348494       -0.2826924365
 H          2.1987838841       -4.4279925620        0.2087194020
 H          0.6586204445       -4.3709047579        0.1428814402
 O         -0.3151639470        0.2824054180        0.7820314981
 H         -0.2883495512        0.0630251274       -0.1637417047
 H          0.4235659180       -0.1659980626        1.2043996797
 O          2.0089528092        1.3371022371       -0.6206093824
 H          1.3586035995        1.5702439734        0.0522627556
 H          1.9304888581        0.3690009276       -0.7503253781
 O          4.4697202000        3.8706534019        1.6345435560
 H          5.3585180951        4.1174522572        1.8900498144
 H          4.5489911600        3.1816873835        0.9567193963
