91
 energy: -144.259861425927 gnorm: 0.000525217900 xtb: 6.5.1 (579679a)
H            1.56694345766883        2.29507689511938       -0.18863395470316
C            0.52449974310093        2.04130453428255       -0.35149671686817
H           -0.09432488802888        2.83296056343962        0.05695950156011
H            0.34627057694500        1.98705904187454       -1.42052815076227
C            0.19872216064003        0.70283633145195        0.30449660576134
H            0.28394006063665        0.80598207971669        1.39074582038084
C           -1.24330045373192        0.29583577720298       -0.01673031287689
H           -1.32844753730780        0.06332061816417       -1.07966089375356
H           -1.90431801512866        1.13531524014767        0.20721372356471
C            1.17919013593638       -0.36260736061309       -0.16867283549953
H            0.94819506316668       -1.33176259613197        0.26282735790805
H            2.18521065383236       -0.09090549883971        0.12684402451521
H            1.14407899127627       -0.44370443184109       -1.25039886010682
N           -1.72811101553638       -0.86618557193816        0.73488566292999
H           -1.16787615004097       -1.67887038893399        0.49343897542216
H           -1.56319257244655       -0.70699702550704        1.72990630982857
O           -2.61137521018946        3.60744878946994       -0.34348689477963
H           -2.71646656170736        4.53978596787959       -0.53574914586042
H           -2.15687530911740        3.54285995064052        0.52667827034651
O           -4.24952099106572        0.22028125023159       -2.26397726901110
H           -4.13348868022078       -0.51663835365036       -1.61872805368255
H           -4.80347144670556       -0.11391986482704       -2.96941892927467
O           -2.23373567978175       -3.41007579061409       -1.62752169184083
H           -1.68789294183097       -3.63939893265358       -0.85214560285031
H           -2.99444699706036       -2.92071421976350       -1.28324703423595
O           -2.53833829136560        1.62382930058464        3.47399618423469
H           -1.94729078006287        0.86661149419627        3.61055328006586
H           -3.32634129314572        1.25727408610538        3.02230894434067
O           -3.99686290995538       -1.65757247794786       -0.38051474960343
H           -3.14633033012731       -1.36848294229547        0.07494142482234
H           -4.69403919718153       -1.54334979323432        0.27059995475813
O           -0.57473726251142       -2.00718524121815       -3.10503095184445
H           -1.22113798148700       -2.49214696458779       -2.52898180086097
H           -0.63925458858740       -2.42553288376877       -3.96507256199573
O            2.08237882181431       -2.53523082528062       -2.56131883244569
H            1.12669779920678       -2.34956971540344       -2.59647205751751
H            2.43045182284497       -2.11958244768117       -3.37331635109472
O            4.11599993320462       -1.72454338372086       -0.80872673002945
H            3.45166470260975       -1.97788031113397       -1.47098362480928
H            4.26479130198500       -0.76070118636931       -0.92961753191595
O            2.51344068470135       -0.87289758592631       -4.66707566114387
H            1.61842385116640       -0.60073045662092       -4.89252910545557
H            2.88974344369852       -0.11126792827597       -4.19922520936878
O            4.24701995256279        0.93843453236919       -1.13659156800387
H            3.93535744818438        1.42968392076182       -0.35907294797068
H            3.63273528691138        1.14802183518772       -1.85735408254077
O            1.31081842089818        3.16494402185903        2.78791639717825
H            0.43292093714744        3.22225288836409        2.37604514670166
H            1.94208237103670        2.91265234787979        2.09160713106773
O           -1.40172453630074        3.48537172008873        2.07068762321274
H           -1.56047099359627        4.26594233116889        2.60415414700947
H           -1.82080721942553        2.73256947165995        2.58908461376907
O           -4.88351848248102        2.02614144962601       -0.23669922190876
H           -4.78522164016439        1.46566939015678       -1.02204114713831
H           -4.14152033432934        2.65186498897495       -0.27163354566012
O            0.00328582554215        0.65046296006838       -3.68333768285792
H           -0.74477842559123        1.21708151146453       -3.41299510073776
H           -0.23088770327073       -0.24643649724381       -3.39429585106529
O            1.41944186984573        1.04886318683578        4.33740017944079
H            1.54732956275728        1.32131117975965        5.24573156222781
H            1.35809341738953        1.88286843136974        3.79710205608523
O            3.44452753596416        2.18106427463526        1.25327932147332
H            4.21291368121787        2.67689209718209        1.53941160552110
H            3.45484995427602        1.34313343272815        1.78868182009516
O           -0.70834895455650       -0.46682595322872        3.50270657839391
H           -0.31323169043098       -1.34620606879826        3.35721575186152
H            0.02305257590029        0.06654072104487        3.85746512292625
O            2.49359471723536        1.51561913721824       -3.23101708476171
H            2.54493320804439        2.39249240932934       -3.61157270158676
H            1.55129904143366        1.23575077190900       -3.30180479076390
O           -0.59478145453992       -3.95536892682789        0.50550207803703
H           -0.85003268825466       -4.82584169546283        0.81454837198228
H            0.31897044676613       -4.06608649366588        0.10961797436640
O            0.61309244466971       -2.73125996618174        2.72212286081677
H            0.10217740787084       -3.15531861495786        2.01474261866018
H            1.50475879154799       -2.60595864298626        2.37121039921345
O            3.42423715818057        0.01736969813991        2.75700565783162
H            3.21822999557042       -0.83052067825450        2.33133742226330
H            2.70187217860941        0.21121309152341        3.37883145385542
O            3.19598258185886       -2.47406316076388        1.46853666480779
H            3.92108306677056       -2.93017492053720        1.89828163398312
H            3.57702430492357       -2.11703957774289        0.60156158189399
O            1.85137459259070       -4.17658593727360       -0.34179600479471
H            2.36137254498269       -3.66465839288796        0.30823479470413
H            2.01466895528788       -3.74980842557732       -1.19837016516706
O           -2.14759424162638        2.02967056463794       -2.72725449178935
H           -2.88143811919395        1.40295123359234       -2.63869191656347
H           -2.17211079397532        2.57614284492917       -1.93031907946822
O           -4.30618975759552        0.40635330530121        1.82817333887829
H           -3.50973568887762        0.01707637155207        1.45063752112827
H           -4.64289737564921        1.03777722416827        1.15521294327646
