  459
       -779.19901424
 O          2.0705758278       -1.9280171469       -3.6612799435
 H          1.8545265932       -2.6020453860       -2.9834475961
 H          2.9570378934       -1.5892536478       -3.4517049343
 O         -6.3953231526       -2.0579022209       -5.0523164434
 H         -6.5439832052       -1.2436030583       -5.5563266357
 H         -5.4780081135       -1.9888663541       -4.7016565285
 O          3.2082810325       -1.3542968536       -0.8443128102
 H          3.2461014271       -1.5428665580        0.1086173176
 H          3.4512081048       -2.1790440845       -1.3192134892
 O         -4.3051792376        3.3941224940       -0.4360221851
 H         -3.9451637704        3.6050151958        0.4363020977
 H         -4.6325019085        2.4732161681       -0.4005445342
 O          3.3463518767        2.7036507241       -2.4878543602
 H          2.8943203853        3.5417205055       -2.2977244070
 H          3.0716688774        2.1144723809       -1.7553297808
 O         -0.0080119000        2.3835006546       -2.3708501165
 H         -0.3997939982        2.7035348536       -3.2044256845
 H          0.6559627355        3.0575059830       -2.1342329190
 O          8.4840682266       -1.1392629010        3.9547811265
 H          8.6574017075       -2.0494226582        3.6930724880
 H          7.5196035275       -1.0567496092        3.9670347495
 O          1.1129005194       -3.8852019773       -2.1004436834
 H          1.2549930075       -3.7697865518       -1.1486572952
 H          0.2489664778       -3.4716622828       -2.3324953631
 O         -5.1802247794        0.8925486557       -0.7900219433
 H         -6.0563864474        1.2944220893       -0.6819069255
 H         -5.0470842417        0.7075958358       -1.7394922334
 O          3.6531321930        5.9802220980       -0.2402572486
 H          3.0070323748        6.3542287957        0.3787588223
 H          3.7760696354        5.0535831507        0.0673524289
 O         -0.8385378322        3.6247647575       -4.6456197421
 H         -1.6562946903        4.1490762617       -4.5162786671
 H         -0.1158765910        4.2551957554       -4.7408982146
 O          2.5718058754        1.3704304912       -0.3345854268
 H          1.6848588189        1.3442952483        0.0701725834
 H          2.8211163922        0.4499245845       -0.4941739983
 O          5.7606111788        3.4667627668       -1.5528413211
 H          5.0699568063        3.1172930949       -2.1471980336
 H          6.4826062289        2.8092216258       -1.5254818085
 O         -2.0011036472        4.0255440248        5.2793681058
 H         -1.8602946262        3.3510534674        5.9712573597
 H         -1.1864031772        4.5549257725        5.2067316748
 O         -1.3643935787       -5.8334114582       -2.1924636921
 H         -0.9867783671       -5.6289583521       -3.0733953800
 H         -2.3054860592       -5.6296627837       -2.2469773299
 O         -2.1559577402        1.5684184060        1.2437536111
 H         -2.5055679445        1.7396678054        2.1374090428
 H         -2.6298538343        0.7958301611        0.8941281822
 O         -5.1206028427        1.7249990687        2.0287666256
 H         -5.0898496705        1.2834877808        2.8950005987
 H         -4.6155598797        2.5477486341        2.1226803604
 O         -4.9788701074       -2.8970271464        0.6465419839
 H         -5.0235623304       -2.6400244091       -0.2882585204
 H         -5.5292012603       -3.6923558533        0.7526431585
 O         -1.0949110436       -4.0890483417       -0.1553445122
 H         -1.4854815171       -4.6384531113        0.5387885591
 H         -0.9356738257       -4.6880574603       -0.9080221239
 O         -1.4848990617       -3.5241908301        2.8048358915
 H         -2.1311979720       -2.7998422658        2.6621987105
 H         -1.8566102742       -4.3242146837        2.4021789316
 O          8.6892932980        1.5796507226        3.4695951606
 H          8.7633745307        0.6306684492        3.6666689408
 H          8.0352972545        1.9353298104        4.0937962135
 O         -7.1760720854        0.0831785919       -2.5827951850
 H         -7.7882153470       -0.4145493949       -3.1445999460
 H         -7.5843561105        0.0653686711       -1.6859822904
 O          4.1875373993        3.4769237077        0.5416833331
 H          3.5782568457        2.7477741570        0.3404220486
 H          4.8868939317        3.4315303120       -0.1520143613
 O         -4.4246326207        0.3401368584       -3.3172231060
 H         -4.6320321710        0.7394693215       -4.1842181152
 H         -3.4926666756        0.0450851253       -3.3639264376
 O         -3.0145127502        2.5864030585       -2.6078396582
 H         -3.3587774780        2.9616793477       -1.7753256213
 H         -3.6439345757        1.8916801667       -2.8613474515
 O         -1.4130976490        3.6159343838       -0.4149870484
 H         -1.7376078249        2.9648714862        0.2257097479
 H         -1.0136820355        3.0976217716       -1.1412716311
 O          1.2701228710        3.6343735533        1.0654374128
 H          1.7386908409        3.0017426411        1.6321738165
 H          0.3292851154        3.6211679102        1.3356040135
 O          5.1840766731        0.3648811898       -0.9632755692
 H          5.1486800967        0.8273902212       -1.8141805085
 H          4.5888322192       -0.4061107299       -1.0488192529
 O         -2.9230206291        1.9479777251        3.8413358789
 H         -2.3790293015        1.1805883265        4.1003101544
 H         -2.5078448489        2.7390986708        4.2326453760
 O          6.3692839043       -2.0981655089       -0.3334189139
 H          7.0237701287       -2.8074065836       -0.1370288824
 H          6.5353577798       -1.8257474465       -1.2510174683
 O          0.8829795307        3.2540069381        6.5535401961
 H          0.1500110568        2.9449813264        7.0959999919
 H          0.7355410257        4.1893634570        6.3727138904
 O          5.2016111511        0.3759155963        5.5909756937
 H          5.4047419973       -0.0189017859        4.7113242940
 H          4.3241619924        0.8068211869        5.5225272479
 O          3.9131536048       -3.5428070601       -2.1539692127
 H          4.8300241171       -3.6882699437       -2.4451648391
 H          3.5878615044       -4.3909798337       -1.8220655261
 O          1.9380038004       -3.7407529996        0.4942105909
 H          2.9145510186       -3.7670008903        0.4840690245
 H          1.6650752944       -3.4958523093        1.3999744627
 O          3.6354471733       -1.8692520590        5.8720514633
 H          4.3524126943       -1.2167280111        5.9622659235
 H          4.0175273148       -2.7238975255        5.6515763397
 O          1.8521296570       -0.9144319311        4.0352568138
 H          2.4774645557       -1.2447200224        4.7096828149
 H          1.1480131127       -0.4607167942        4.5300456742
 O          7.1793623833       -0.5471801880       -5.2948521976
 H          6.3362839993       -0.4229424973       -5.7604252671
 H          7.5923554134        0.3222565836       -5.2261772808
 O          1.1287873980       -3.2454110567        2.9878298133
 H          1.3129930095       -2.3302698867        3.2877961589
 H          0.1693245200       -3.3076439623        2.8140391396
 O         -5.5434689242       -1.9900932422       -1.9660416955
 H         -6.0303018685       -1.1723774247       -2.2054078649
 H         -4.8132248576       -2.0358634190       -2.6020501371
 O         -3.4029280372       -0.6610323551        0.2636375197
 H         -4.1444763797       -0.1377767342       -0.1003160977
 H         -3.2593675572       -1.3893060627       -0.3742425945
 O          3.6624034572       -4.7328422978        4.8065167010
 H          3.5415101145       -5.4544951473        4.1665471405
 H          2.7865100830       -4.6026874784        5.2016859806
 O          1.9194995162        6.0912683713        1.8540111047
 H          1.6441061256        5.2415572618        1.4359706640
 H          2.3181114017        5.8141742801        2.6910835054
 O         -1.7865895871        0.1275195956       -3.3204430735
 H         -1.6741040881        0.9781851149       -2.8835412155
 H         -1.0588718210        0.0673754116       -3.9644255930
 O          1.5655174707        4.3971980706       -1.4707161582
 H          1.0129325006        5.1877263900       -1.3327824081
 H          1.5930269469        4.0033271230       -0.5777978788
 O          1.8721030219       -1.2802783266       -6.8343517286
 H          1.3528291509       -0.6719108248       -6.2744364086
 H          2.7810455186       -0.9408824266       -6.8049546343
 O         -1.6829031599       -4.3021210183        5.3398673095
 H         -2.3943188630       -4.9655713822        5.2435995654
 H         -1.5666493766       -3.9741148511        4.4200424852
 O         -3.3159602656       -1.6327203315        2.6779738535
 H         -3.9587549127       -2.3520634248        2.8933459350
 H         -3.4397882606       -1.3731420338        1.7317653554
 O         -2.9439063501       -2.7237898182       -1.4156070200
 H         -2.2916893041       -3.1736660450       -0.8263067637
 H         -2.3953594930       -2.4392846791       -2.1774460896
 O         -3.8596640023       -2.3356265299       -4.2190102799
 H         -3.2882927279       -1.7268596157       -4.7183267540
 H         -3.6173253557       -3.2247329480       -4.5348437908
 O          1.6567053201        4.9304758503       -4.6964356895
 H          2.1855233043        5.2159742201       -3.9266804188
 H          2.1099615228        5.2644034437       -5.4706116123
 O         -7.2359177398        2.1955712234        0.4476840044
 H         -7.7844298357        1.3996362091        0.4097796280
 H         -6.5808285649        2.0809063751        1.1661335509
 O         -3.6569509008        0.0207162769        6.5007963786
 H         -4.0613429716        0.0542147074        5.6052706118
 H         -2.9765501532       -0.6734267513        6.4702693535
 O          4.9829672953       -3.2611144346        3.0318154580
 H          4.5185260100       -3.8084087000        3.6992661388
 H          4.9184217052       -3.7445663180        2.1738450524
 O        -10.2065650375        1.4599360739        0.8045018439
 H         -9.6738601060        1.0087219422        1.4846777243
 H        -10.0765814805        2.4077500864        0.9578191735
 O          9.8891124012        1.3654159433       -2.1794843439
 H          9.0481282434        1.4406672218       -1.6675537729
 H         10.4598813844        2.0512311576       -1.8315533500
 O          1.0162784815       -4.2361481871        5.4651450375
 H          0.0916632819       -4.5162900541        5.5806736212
 H          1.0705820137       -3.9245229867        4.5324227436
 O          2.0445746166        2.1729197417       -4.7084388270
 H          1.6315490250        3.0382041180       -4.8346181251
 H          2.4770400410        2.2265012139       -3.8242875015
 O         -2.1253256068        1.5789796371       -6.0802770144
 H         -3.0610889931        1.7736823546       -5.9224527292
 H         -1.6101415895        2.2110331835       -5.5582873050
 O         -0.4925857341       -5.2876191602       -4.6946607302
 H          0.4137032199       -5.6204701378       -4.5673315433
 H         -0.3897468999       -4.3812820307       -5.0378199845
 O         -4.0124310902        6.4580636578        0.6273751333
 H         -3.8255949798        5.6745620710        1.1757973374
 H         -4.9107951859        6.3223393734        0.3000012709
 O          7.6522219375       -3.8459665483        3.0770820467
 H          6.7205770241       -3.5503260572        3.1115597858
 H          7.5807756547       -4.7999932597        3.1835355902
 O         -1.5928359890        1.8327959264        6.8190367786
 H         -2.4057145981        1.2958394511        6.8314907390
 H         -0.8857040384        1.2128288995        6.5560476995
 O         -7.4379204977       -3.4535183621        2.7190237587
 H         -8.2568240244       -3.0480918579        2.3687882509
 H         -7.2462969143       -4.1796770743        2.1092623463
 O          5.0104665699        4.2031128192        3.0266352878
 H          4.7513208809        3.8296263404        2.1588230795
 H          5.5273346024        3.5315363050        3.4965615667
 O          0.1458327178        2.2607919411        4.0372225631
 H          0.3668371245        2.5163035598        4.9466185343
 H         -0.2373082425        1.3755046697        4.0686369699
 O         -4.3685166621       -6.4615685832       -0.1565313495
 H         -4.1389458993       -7.3515135512       -0.4235163530
 H         -4.2577760534       -5.8812753407       -0.9492285843
 O         -9.3630880989       -2.4398398252       -1.2534421575
 H         -8.6637675032       -3.1183707145       -1.3303594030
 H         -9.4933960782       -2.1322084617       -2.1600124841
 O          4.8643211893        1.0217604190        1.6193242592
 H          5.6092790129        1.6596313750        1.6416898639
 H          4.8563493506        0.7078906100        0.6924650948
 O         -9.0876050418        4.0206231036        0.9185655280
 H         -8.3170535405        3.4107984496        0.8099985347
 H         -8.8163558331        4.6367488377        1.6025328603
 O         -0.5858882630        6.6071306219        2.6002430500
 H          0.3109913156        6.5943250959        2.1920845394
 H         -1.1721420026        6.9752702624        1.9358407543
 O          6.3068951258        6.0316061084       -0.8884831684
 H          6.2414146673        5.1478686240       -1.2971479795
 H          5.3927628333        6.2577417215       -0.6530407338
 O          0.2675521260        5.5089424019        5.0005426377
 H         -0.0707376265        6.1471946414        4.3580403710
 H          1.0897399030        5.1572006683        4.6143739438
 O          9.8459315981        1.5762459409        0.9362940947
 H          9.7900120849        1.7739435962        1.8790101063
 H          9.0877053941        0.9936548419        0.7647842157
 O          3.3172695578       -6.6097685586        2.7782045680
 H          2.7505558130       -6.4789318443        1.9748855059
 H          3.1078078960       -7.4835036971        3.1070466396
 O         -0.8842264664       -2.4733702615       -3.0052508408
 H         -0.5071073341       -1.6398271525       -2.6277763727
 H         -0.6973181311       -2.4626023674       -3.9577316498
 O         -5.3270521417       -2.3417023768        6.1805514681
 H         -4.8256583714       -1.6024693641        6.5493905286
 H         -6.1864555438       -1.9842415969        5.9202932414
 O         -9.6079346843       -2.2323942906        1.6772753512
 H         -9.5470661149       -1.2902526539        1.8716775820
 H         -9.7758705952       -2.3270236226        0.7329817501
 O         -8.5142273566        3.9321520072       -4.6331764220
 H         -7.5686440327        4.0804181391       -4.7957858332
 H         -8.6714031395        4.1769397475       -3.7113018620
 O         -0.2070466031        6.0709149352       -0.3264658424
 H         -0.5677497908        5.1992891893       -0.0786806538
 H         -0.8935237688        6.4341114882       -0.9022484361
 O         -6.2354660621       -0.7984608213        1.5746542973
 H         -5.6335953489       -0.0509506700        1.4634875875
 H         -5.7477378973       -1.6171329956        1.3132359785
 O         -2.3872410110       -5.8146197978        1.5914262778
 H         -1.7460544424       -6.4670645547        1.2178734953
 H         -3.2065515180       -5.9510328279        1.0806536654
 O         -6.4637559732        2.7156241683       -2.4686365278
 H         -7.2805411893        3.1293667885       -2.1433068423
 H         -6.6954476454        1.7997347941       -2.7001403950
 O          2.5329062078        1.7849464426        2.6950465564
 H          1.7960816206        1.2284466540        2.3908678772
 H          3.3533245367        1.4649424903        2.2595509394
 O          7.7448918580       -0.3715435445        1.1347042710
 H          7.1599378324       -0.9174362462        0.5630457274
 H          7.3500745523       -0.4008735889        2.0146701062
 O          9.8932435269       -1.3293773671       -1.8344487834
 H          9.9655863531       -1.3184304147       -0.8611834982
 H         10.0601371509       -0.4111004651       -2.1043794603
 O          3.3688243252       -1.3694226623        1.8453687423
 H          2.8416641415       -1.0094025845        2.5711707848
 H          3.8425300985       -2.1280833740        2.2125692661
 O          8.0509392616        4.3416660671       -2.9176392316
 H          8.2392617112        5.2760591883       -3.0048413921
 H          8.4214382846        4.0833373754       -2.0489546420
 O         -3.6664891001        4.1266108827        2.0901144558
 H         -2.6958661155        4.0045684431        2.1763716590
 H         -3.9807834772        4.4701701982        2.9576408715
 O          6.2350006846       -5.6701663100       -0.7729031880
 H          6.9797258763       -5.2506883161       -0.2971421443
 H          6.3058319185       -5.2747038947       -1.6579921153
 O          3.4665919505       -6.2541056564       -1.5853843779
 H          4.3836221503       -6.5319626927       -1.6379862337
 H          3.0684756530       -6.2845945458       -2.4773069833
 O         -1.0312299110        3.9653807726        2.3734589332
 H         -0.6598771218        3.4068281770        3.0860854730
 H         -0.8748723809        4.9061938927        2.5877305526
 O         -9.0356574593        1.3169312596       -4.5491297275
 H         -8.9074233086        2.2862652934       -4.6746020987
 H         -9.1617124854        1.2067821169       -3.5958205146
 O          6.4436894153       -4.0857776896       -2.9931286007
 H          6.1984605942       -4.0665364740       -3.9303119881
 H          6.9235648960       -3.2402176990       -2.8563081193
 O         -3.5653008097       -5.8148563859        4.1905692497
 H         -4.1476869209       -5.0516851610        4.0258308381
 H         -3.1462854587       -6.0090257909        3.3411569923
 O          7.5524576378        1.5562181711       -0.9590426773
 H          6.9301656753        0.8145307482       -1.0223777262
 H          7.4519531154        1.8893728641       -0.0414100775
 O          7.0547927371        2.4912945537        1.4912590887
 H          7.6629295767        2.1712067840        2.1824646131
 H          7.1288060882        3.4729721738        1.4677752039
 O         10.2177109606       -1.3100248662        0.9007669002
 H          9.2833065352       -1.0861827172        1.1183194834
 H         10.7180817304       -0.5104939656        1.0849153550
 O          2.8281872656        1.5873617329        5.3590779234
 H          2.6725937316        1.6210375682        4.3868566990
 H          2.5712646431        2.4462434081        5.7114040520
 O         -8.5007695996        0.3365084578        2.6684211585
 H         -7.7035358619       -0.0699150715        2.2854374781
 H         -8.1864908126        1.1771659837        3.0689318259
 O         -9.9284373934        1.3307240809       -1.8356425339
 H         -9.9117680420        1.2286996052       -0.8512318260
 H        -10.8533384264        1.2728544271       -2.0749569164
 O         -1.6388617357       -1.8202962420        6.2809018690
 H         -0.8957983729       -1.8598048579        6.8898425036
 H         -1.8038193920       -2.7511370869        6.0091806239
 O          6.0136779172       -6.0227767624        2.2698101124
 H          5.0952512392       -6.2433172775        2.4871280918
 H          6.1370242117       -6.2751264150        1.3518623140
 O         -4.9186041755       -0.0197619302        4.1289126959
 H         -5.7743431885       -0.4822976911        4.2362433309
 H         -4.3451623605       -0.5993689332        3.5920564834
 O          2.5083069192        4.3573694825        3.9411595861
 H          2.1846030110        3.5169551931        3.5889521764
 H          3.4661839372        4.3706466481        3.7289798864
 O         -6.0523865370       -4.6648560210       -4.1925549221
 H         -5.4180631889       -5.0332053511       -4.8152676529
 H         -6.2743689874       -3.7881439034       -4.5456355386
 O         -7.2110266560       -4.0096458404       -1.7520583803
 H         -7.1528153961       -4.4742043097       -2.5927308319
 H         -6.5903783614       -3.2388727269       -1.8359830061
 O          3.4852211404        5.9114710202       -2.8958124425
 H          3.4206521153        5.8514317825       -1.9119383081
 H          3.6984007157        6.8248821817       -3.0855552748
 O         -0.7108458912       -7.2516685714        0.1456130250
 H          0.2140794578       -7.0156079085        0.3498051708
 H         -0.8691822487       -6.9255113479       -0.7531851234
 O         -6.7931101682        4.8739364734        2.4281582504
 H         -6.0912107392        5.2832160733        2.9396262005
 H         -6.5609734808        4.9689518284        1.4811501959
 O         -8.8596417439        3.8411993194       -1.7970001851
 H         -9.0548756587        4.1213443022       -0.8859560804
 H         -9.2954956235        2.9689517890       -1.8732045702
 O          5.4730645143        4.5512410966       -4.3232047757
 H          4.8004112303        4.9505436854       -3.7490869743
 H          6.2508298493        4.3964543420       -3.7704279014
 O          4.4839803073       -0.3533745404       -6.2324273853
 H          4.3112728006       -0.6011956170       -5.2982391544
 H          4.4946482693        0.6135391546       -6.2474479525
 O          5.8601173879       -0.7094638636        3.2745935207
 H          5.5138520164       -1.6094176124        3.1634643757
 H          5.3838971192       -0.1344337933        2.6162473643
 O         -1.3671332847       -0.2440340182        4.0812496735
 H         -1.9740695199       -0.7319634817        3.5042541257
 H         -1.3431447472       -0.7497290353        4.9152364608
 O          6.4964501218        2.5709934471        4.8187224700
 H          6.0620413540        1.7626696054        5.1875216655
 H          6.6333000242        3.1699041890        5.5518057267
 O          5.7365165394        1.2832573875       -3.4325271842
 H          5.2474484921        1.6701026805       -4.1883838871
 H          6.6790382934        1.4463729391       -3.6320565685
 O         -7.4075163705        2.5231131149        3.6779415350
 H         -6.6840697064        2.4390257010        4.3165833028
 H         -7.2497928566        3.3594844795        3.2052096570
 O          7.2017779835        5.1248765704        1.4377331650
 H          6.4816002717        5.2457833747        2.0708222147
 H          6.9037602325        5.5479641470        0.5941981423
 O          8.2188702438        1.9136303084       -4.2570271334
 H          8.9243848200        1.5955324264       -3.6664269353
 H          8.1427601827        2.8575355514       -4.0501721192
 O         -5.1505013273        2.4912919001        5.3137472273
 H         -5.1131701090        1.9860507952        6.1263772980
 H         -4.4090377569        2.1642207166        4.7585499788
 O         -4.4561084928        4.9764125138        4.4643062848
 H         -3.5760687681        4.9297411124        4.8701341627
 H         -4.9329874465        4.2219632924        4.8505882214
 O         -7.2159470701        0.3339091853       -6.1792966559
 H         -7.6026315898        0.5354341584       -7.0307636168
 H         -7.8413019010        0.7003095325       -5.5022719093
 O          2.0929371889       -5.6413549233       -3.8466042827
 H          2.4996848592       -5.0701632398       -4.5165057860
 H          1.7291855169       -5.0195791988       -3.1763897544
 O          4.6180933229       -3.9363960629        0.5309843531
 H          5.0442752633       -4.7034326068        0.0995235062
 H          5.0895424708       -3.1580425439        0.1684606634
 O         -3.2032506507        4.7697151553       -4.0137146278
 H         -3.0626621580        5.4079737917       -3.2922248381
 H         -3.1909197995        3.8978974897       -3.5360546359
 O          1.1630281036       -2.1227929908        7.1088202576
 H          1.0487789446       -2.9236818470        6.5469852380
 H          2.1174008196       -1.9785934182        7.0923964952
 O          1.8312640894       -6.3517810120        0.5904148531
 H          1.7052789323       -5.3682779403        0.5655342471
 H          2.3968012935       -6.5193017949       -0.1825912847
 O          9.2042216724        3.8938344561       -0.4629270415
 H          9.4751941324        3.0915410814        0.0213472014
 H          8.7401436727        4.4466019035        0.1731693461
 O          8.0058931194       -4.0329775622        0.4038558028
 H          8.9487604358       -4.0343651016        0.1337778157
 H          7.9822318214       -3.9585455570        1.3803445649
 O         -4.0532694202       -4.9090432667       -2.2729052165
 H         -4.8800862345       -4.7436797306       -2.7581638262
 H         -3.7244674468       -4.0160508542       -1.9551066423
 O         -5.7187660733        3.9740378662       -4.6482969645
 H         -4.8826964694        4.4627517114       -4.5297995492
 H         -5.9081138421        3.5585199133       -3.7707337474
 O         -8.8419525601       -1.6242002257       -3.9362130263
 H         -8.0216839191       -1.9481574645       -4.3581131495
 H         -9.2624737193       -1.0251871932       -4.5570841591
 O         -6.5944962781       -5.0840279056        0.6571419046
 H         -5.9165104644       -5.7558313948        0.4962763477
 H         -6.9469636272       -4.8222399711       -0.2137779176
 O         -8.1287513964       -0.3224962695       -0.1911829477
 H         -7.4151519732       -0.6686471214        0.3865062560
 H         -8.6573152045       -1.0865031787       -0.4926012984
 O          2.8059131267       -3.5756425300       -5.5681915070
 H          2.5149243075       -3.1194401476       -6.3676550442
 H          2.5084223732       -2.9669702273       -4.8381173577
 O         -7.2739553145       -1.3180498405        4.5071693368
 H         -7.9438889968       -0.7150656390        4.1487257546
 H         -7.3291240831       -2.1107185623        3.9510789623
 O         -4.8736451519        1.6532528458       -5.6045726920
 H         -5.1769626530        2.5548688676       -5.3400173513
 H         -5.6626997012        1.1953814605       -5.9317707171
 O          5.4224359584       -3.1870511953       -5.2930123107
 H          5.7142112318       -2.6566061574       -6.0352893305
 H          4.4709837103       -3.3959857329       -5.4424833258
 O          0.5405313348        0.2774518442        6.0969808527
 H          0.7192839447       -0.5488729799        6.5872965819
 H          1.3699694162        0.7864888840        6.0881683488
 O         -2.3988162323       -1.0139218125       -6.1014803790
 H         -2.8036061048       -1.0670569297       -6.9663479848
 H         -2.1546074194       -0.0591254688       -5.9830407832
 O         -3.2571982657       -4.9260726707       -4.9367012650
 H         -2.3293441880       -5.1121519438       -5.1304382137
 H         -3.3777408513       -5.1619857924       -4.0043342150
 O         -4.8812353211       -3.4363323070        3.7513562025
 H         -4.9792534675       -3.1171101032        4.6739170420
 H         -5.7762331728       -3.4784410163        3.3797060413
 O          7.4049107148       -1.5963928004       -2.7771002524
 H          7.3683301294       -1.2355929959       -3.6841097251
 H          8.3385710529       -1.5251286689       -2.4849101280
 O          4.5916712250       -1.1038841685       -3.6454900891
 H          5.1895195723       -0.3481589567       -3.4809179749
 H          5.1180280168       -1.8583744170       -3.9489976938
 O          4.5652434297        2.3414036837       -5.5997970825
 H          3.6063319747        2.3351734184       -5.4006328360
 H          4.9030642028        3.2137096831       -5.3196647528
 O          0.4964294466       -0.0464225275       -4.8051611119
 H          1.0052876038       -0.6754081211       -4.2590523877
 H          0.9591974828        0.8077470032       -4.7448276088
 O         10.5555461701       -3.7672134280       -0.3269739914
 H         10.5401924271       -3.3751008220       -1.2063744559
 H         10.7041200431       -3.0278183862        0.2813579874
 O         -6.3008440820        5.1198722079       -0.2357391923
 H         -7.0445107108        4.9595693543       -0.8183390451
 H         -5.6318382911        4.4244944214       -0.4456694871
 O         -0.3639918047       -2.7346396134       -5.6756800843
 H         -1.0853701910       -2.1149455951       -5.8989527110
 H          0.4318200095       -2.3631581703       -6.0747431932
 O         -2.6100007565        5.8340007676       -1.6002588095
 H         -3.1722997272        6.1866059549       -0.8838753903
 H         -2.3464350187        4.9505539576       -1.2838942319
 O          0.3828583901        0.7986515771        1.3367094912
 H         -0.5170696360        1.1872839209        1.3527183247
 H          0.2241455963       -0.1453900302        1.1981871594
 O          0.1150112833       -1.6905322329        0.3837876696
 H          1.0206882705       -2.0129349836        0.3022106319
 H         -0.4454549169       -2.4542135952        0.1904537430
 O          0.6893512739       -0.2994768509       -1.9359552073
 H          0.5096123117       -0.5174447198       -1.0151766086
 H          0.5658374104        0.6528467179       -2.0441191057
