  132
       -218.68931529
 H         -0.5955151321       -2.2602573872        1.3625121910
 C         -1.0996791196       -1.5221704034        0.7397855640
 H         -2.0451159655       -1.9466035529        0.4053960893
 C         -0.2457680600       -1.2079122539       -0.4883924346
 H         -0.7362435347       -0.4605599167       -1.1071830533
 H         -0.1339951992       -2.1224083464       -1.0668116062
 O         -1.4208283951       -0.3788432635        1.5033151378
 H         -0.6477765431       -0.1054997367        2.0351923710
 N          1.0761881272       -0.7003488777       -0.0926735548
 H          1.7528086678       -0.7619182673       -0.8936481708
 H          1.4571852632       -1.3058945032        0.6628133560
 H          1.0113971818        0.2919030048        0.2450629537
 O          0.2780964413       -2.6767582421       -3.6746586533
 H         -0.7108014634       -2.6727897320       -3.7616229644
 H          0.6227872062       -3.0184307438       -4.5008861381
 O          1.6354188372        2.3498818339        4.7368966557
 H          1.4324537002        1.4434135626        4.4628754954
 H          0.8174096998        2.7030891859        5.0982831821
 O          2.8455435350       -1.3703517846       -2.0118209893
 H          3.6726601205       -1.1773904696       -1.5224605940
 H          2.6863888686       -2.3325708524       -1.9643306193
 O          0.6568182134        0.0817483519        3.3075357934
 H          1.4967673337        0.1087714409        2.7971350383
 H          0.6353159948       -0.8007343163        3.7109627850
 O          1.7613304114       -2.8296029127        1.5120638397
 H          1.3026651437       -3.5349398660        1.0076122673
 H          2.7194827553       -2.9337012022        1.3952374562
 O         -0.0900994279        3.7218952111       -1.0055155539
 H         -0.8975105192        4.1183991197       -0.6350960121
 H         -0.4096574617        3.2052177220       -1.7707547828
 O          2.7554598204        1.4867160192       -0.7785083985
 H          2.6526851653        1.4062814639       -1.7401269440
 H          2.7487757302        2.4410393817       -0.5842229688
 O          0.0411873826        0.0302829648       -3.8877613986
 H          0.2424044301       -0.9052867364       -3.6891503737
 H         -0.6085562311        0.0118560768       -4.6121684708
 O          1.9410859027       -3.8812275084       -1.7859734284
 H          1.2701932705       -3.6580723242       -2.4493066650
 H          1.4757454781       -4.3485056980       -1.0819657775
 O          4.7139747276       -0.3529268746       -0.4458222349
 H          5.5291830568        0.0252064898       -0.8355387241
 H          4.0780401931        0.3922548744       -0.3812733809
 O         -1.3083701693        1.9308627373       -2.5495137400
 H         -0.7449576289        1.2319902756       -2.9327501198
 H         -1.7278300163        1.5791794555       -1.7376224408
 O          2.5073188621        4.1865140763       -0.2825286134
 H          2.3701110498        4.1319876203        0.6752258756
 H          1.6219139122        4.2631939348       -0.6711192616
 O          0.3951552149        1.7914504037        0.8057996681
 H          1.0907701332        2.1890792776        1.3767972078
 H          0.2876679602        2.4339496822        0.0710510941
 O          0.6231509484       -2.5494603499        3.9197374691
 H          1.0640700918       -2.7450132813        3.0617086298
 H          0.9029407640       -3.2236650316        4.5389877745
 O         -4.0138232182        0.8513637818        2.4301534360
 H         -3.2410132340        1.4231598564        2.2412177677
 H         -3.9024583138        0.5706388557        3.3526347426
 O         -3.1090863443       -0.0269795439        4.8883934976
 H         -3.4976817468        0.0661422292        5.7580392442
 H         -2.3962952687        0.6589938028        4.8139810759
 O         -4.1154849946       -1.8235644079        1.8299891404
 H         -3.4470641726       -2.1518257208        2.4503574262
 H         -4.0785181696       -0.8536409260        1.9211678325
 O         -1.5208363304       -4.8148559831        2.4619160867
 H         -1.8579930356       -4.0228892359        2.9049581925
 H         -2.1125655642       -5.5314521763        2.6906020993
 O         -2.1283175421       -0.1057873661       -5.5925143685
 H         -2.7517210137        0.4456757956       -5.0568134930
 H         -2.2500312158        0.1552196864       -6.5053186532
 O         -3.6183036660       -0.9620822077       -2.1660969751
 H         -4.0304983682       -1.6727108088       -1.6478966701
 H         -3.1998525338       -0.3663965875       -1.5079698243
 O         -1.9540280202        2.5381215234        1.9101974439
 H         -2.2513055881        3.2268401186        1.2922635975
 H         -1.1189750963        2.1887378711        1.5296622643
 O         -5.3222851064        1.3203236070        0.1393755142
 H         -5.0751567588        1.2527406943        1.0803653869
 H         -6.0092250501        0.6695104753       -0.0091086664
 O          5.1257339333        3.3978273186       -0.6694687300
 H          4.3696890596        3.9947559680       -0.5784891753
 H          5.0435989750        3.0204058199       -1.5602716069
 O          0.1397041540       -4.5821283293        0.2726686615
 H         -0.3551735721       -4.8376810239        1.0681496610
 H         -0.5551022480       -4.3639035476       -0.3738575720
 O          2.9327015474       -0.0834965861        1.9947597288
 H          3.4658156674       -0.8831615355        2.0537560307
 H          3.5437295082        0.6393197829        1.7861450216
 O          4.8992878667        2.3031241587       -3.2491902464
 H          5.0848160421        2.8012918701       -4.0458135728
 H          4.0736741570        1.8082354400       -3.4109583780
 O         -4.3801122882        3.1821157169       -1.7453826036
 H         -4.9310106783        2.6324344782       -1.1723258313
 H         -4.2735058081        2.7039968874       -2.5791921118
 O         -2.1735653192       -2.4002938757        3.7601115146
 H         -1.2102263036       -2.3458459136        3.8617620044
 H         -2.5341430222       -1.6277370666        4.2280465959
 O         -1.2315370151        1.7654800806        4.4075373005
 H         -0.5725955771        1.1660717128        4.0205163322
 H         -1.5757132037        2.2668061378        3.6489281291
 O         -2.6049287941        4.3065159472       -0.0984945328
 H         -3.2029017075        3.8756526192       -0.7537540011
 H         -2.9688770615        5.1790617031        0.0534816874
 O         -3.5844516193        1.2825725216       -3.8293807372
 H         -2.7645534051        1.6527687249       -3.4345803478
 H         -3.8139060463        0.5054044683       -3.2953322417
 O          4.4426788188       -2.3835952071        1.2713776237
 H          4.6240035704       -1.6798464508        0.6101729250
 H          5.2296593866       -2.9260258175        1.3183673351
 O          6.7135342602        0.9537663848       -1.6399745882
 H          6.1974356781        1.3422362774       -2.3650875043
 H          7.0568549913        1.6934486626       -1.1338463071
 O          2.2421283994        3.0933535886        2.2235994054
 H          3.1250376214        2.7121633882        2.0711053430
 H          2.0628565155        2.9821717489        3.1785123095
 O         -2.3024744364       -2.3990476117       -4.0208151453
 H         -2.7702769270       -1.9045197034       -3.3141194820
 H         -2.3196659962       -1.7968287642       -4.7798048150
 O         -2.6615123483        0.8790166873       -0.4935641155
 H         -3.5406755588        1.2167512755       -0.2596727665
 H         -2.2486092312        0.5587760014        0.3358089878
 O         -4.3206096139       -2.9955698816       -0.4920555245
 H         -4.2597822392       -2.5681646674        0.4027303549
 H         -5.0769137102       -3.5815760204       -0.4612420203
 O          2.6034345858        0.8716451238       -3.4692947033
 H          2.7985014529       -0.0313466863       -3.1578339182
 H          1.6901946002        0.8208593624       -3.7935315253
 O          4.6906238666        2.0192964429        1.5648748141
 H          5.4309034099        2.2171363931        2.1385596175
 H          4.8764279151        2.4650389039        0.7018282481
 O         -1.8639353820       -3.8394894332       -1.4567336783
 H         -2.7329900271       -3.6426621008       -1.0698547493
 H         -1.9942688974       -3.8295158006       -2.4083064224
