  86
       -142.08243707
 H          1.6085970110        0.7803780121       -0.2251729798
 C          0.5496387277        0.6764721103       -0.4804969071
 H          0.0993944542        1.6660528080       -0.5639508316
 C         -0.1406029512       -0.1358005874        0.6101108592
 H         -0.0100001673        0.3924210451        1.5533897190
 H          0.3467128444       -1.1098595127        0.6872817413
 N         -1.5635603603       -0.3622145177        0.4044033316
 H         -2.0638506057        0.5178054576        0.3078915775
 H         -1.7273964827       -0.9043123079       -0.4427684788
 O          0.4226932445        0.0738742945       -1.7697567093
 H          0.4295211893       -0.9134697864       -1.6662295862
 O          4.1352536868        3.4169628873       -0.2959038821
 H          4.8173168248        4.0280347976       -0.0187917099
 H          3.3525942366        3.5794611694        0.2990988459
 O          2.5668812104        3.0294111895       -2.5320948126
 H          3.2301071046        3.2155946672       -1.8441844275
 H          2.7305768004        2.1216285406       -2.8137081223
 O          2.9314657240        0.1441366761       -2.8425035202
 H          3.1654289309       -0.7952105379       -2.8456448632
 H          1.9937805968        0.1627622853       -2.5708695901
 O         -3.6497709873       -0.8597953994       -3.2468052097
 H         -2.9695843469       -0.1810138742       -3.3755330495
 H         -3.2235567276       -1.5459380494       -2.7021349258
 O         -1.6536396446        1.0982908751       -3.1206155962
 H         -0.8968667657        0.6948233669       -2.6389746602
 H         -1.2790403402        1.7574837533       -3.7053988980
 O         -3.1501606092        1.8028231371       -0.9001465711
 H         -2.6647914279        1.6291595684       -1.7244664266
 H         -4.0434134562        1.4651771286       -1.0442351041
 O         -5.3624825441        0.2954821454       -1.6394735448
 H         -4.7686839752       -0.1661299817       -2.2955123450
 H         -6.2517350545        0.2370623962       -1.9874650272
 O         -1.4644636795        2.2004616477        2.8386792368
 H         -1.6184447579        2.7980080854        2.0773316196
 H         -2.1711893901        1.5362275121        2.8056831766
 O          3.2297185056       -2.6300471587       -2.3386307648
 H          3.4110396535       -2.8362432495       -1.3915583043
 H          3.7392391777       -3.2511657566       -2.8590479697
 O          1.9738750043        3.8283343612        1.1238519227
 H          1.7093903489        3.1210930160        1.7412823821
 H          1.3030060566        3.8462331155        0.4211791506
 O          0.8875505950       -3.6184347037        0.7851238924
 H          0.7462110621       -3.1904447203        1.6515970289
 H          1.8536584870       -3.6421625087        0.6599485694
 O          0.2907610735       -2.4414529026        3.1795082954
 H         -0.6453861860       -2.1700943290        2.9815263273
 H          0.2588460350       -2.9920175867        3.9621127503
 O          3.9146136962        0.6708018287       -0.3318685267
 H          3.7141856162        0.5013228320       -1.2692365850
 H          4.1342385651        1.6111328598       -0.2614632982
 O          0.5492666448       -2.5821134492       -1.6941040128
 H          1.4320897496       -2.6908715707       -2.0831181236
 H          0.6040083685       -2.9759199634       -0.7976566639
 O         -3.6938200932        0.4872726972        2.7384971747
 H         -4.4142925587        1.0399553024        3.0415975478
 H         -4.0284647525        0.0120327950        1.9450371853
 O         -4.6214795443       -0.9655724756        0.6686319675
 H         -4.0033600630       -1.6287906374        0.3519380655
 H         -4.9365335788       -0.4874906130       -0.1203545066
 O          2.3267382473       -0.5290001863        3.2558954297
 H          1.5901833158       -1.1582028748        3.2337919642
 H          1.9481299668        0.3496494647        3.0936395820
 O          0.4313184113        3.9122765696       -1.2004002406
 H          0.3801361400        4.8299447924       -1.4725280631
 H          1.1605649755        3.5168697804       -1.7377845009
 O          3.5546750227       -3.3485114107        0.2262527333
 H          4.2165545871       -3.9984467527        0.4626014452
 H          3.8070710317       -2.5074865411        0.7471130509
 O         -1.8155203218        3.6438585580        0.5807399738
 H         -1.0470675462        3.7620814145        0.0096921817
 H         -2.4215580071        3.0694185466        0.0816984343
 O          1.1401459211        1.9940871478        2.9990861574
 H          0.1485697412        2.0421924786        2.9602414984
 H          1.3873837355        2.4258288751        3.8183747769
 O         -2.1560441794       -1.8427355594        2.4824045159
 H         -2.7418604827       -1.3082891901        3.0275736746
 H         -1.9684794436       -1.2499124047        1.6813202887
 O         -2.2134275512       -2.4497155475       -1.5646469511
 H         -1.3244855133       -2.5920059031       -1.9164268268
 H         -2.2881260370       -3.0839743551       -0.8194344412
 O          4.2424094128       -1.2635382865        1.5145451985
 H          4.2123050503       -0.5328608528        0.8682866422
 H          3.6005691781       -1.0117021877        2.2129909635
 O         -2.0038896149       -3.9275545836        0.6655174094
 H         -1.0485184083       -4.0656563550        0.6816636351
 H         -2.1943251497       -3.3225828017        1.4011429873
