  526
       -891.57941989
 H         -0.1148014210        0.6455380713        0.1125656283
 O          1.4821244333       -0.9991185907       -5.8756502102
 H          1.3713297230       -1.4895156529       -6.7190298137
 H          0.5650002067       -0.7823113119       -5.6275176475
 O         -0.2335433690        1.5817490868        0.5445648224
 H         -0.3779049320        1.4543229149        1.5506423918
 H         -1.0604665314        1.9962366438        0.1602454414
 O          3.5918387126       -7.0956020450        2.4689151055
 H          4.3553777813       -6.8174942806        3.0196632271
 H          3.5952562435       -6.4928704473        1.7147190763
 O         -4.3546795562        2.5713714570       -1.1422768993
 H         -4.5081472052        2.2428817438       -2.0487763303
 H         -5.2310743187        2.6302735925       -0.7355518408
 O         -0.8563602776        0.2706767547       -6.1944331091
 H         -0.4185268118        0.6202967615       -6.9895113369
 H         -1.4933150452        0.9337403004       -5.9034936225
 O         -0.5852570104       -3.0142519890        0.3037100943
 H          0.0563618798       -3.4955942177        0.8420007776
 H         -0.9787960111       -3.6469936645       -0.3217795338
 O         -1.3503127204       -1.3546312099        2.2614219776
 H         -1.5858524795       -2.1818761999        2.7263092583
 H         -0.3955696284       -1.4371094328        2.0530436901
 O          3.3989231964       -4.6142258360        5.6522587010
 H          3.0172913548       -4.3511181366        6.5092389587
 H          2.6892998992       -5.0208434492        5.1427406965
 O         -1.6501743194       -4.8383671283       -1.4769911490
 H         -1.2389753239       -4.9993145392       -2.3403858993
 H         -1.8212466934       -5.6967691115       -1.0869736222
 O          2.3992486665        1.1659015593       -2.8868278612
 H          1.9008459890        1.8202285753       -2.3679155238
 H          2.2287528808        1.3614279557       -3.8206105058
 O         -7.8235691971       -2.2687087570       -2.3629618947
 H         -7.5720066818       -2.4650007395       -1.4417399932
 H         -7.5435688962       -3.0424111082       -2.8698673250
 O         -3.7035054647        0.2472469280       -7.2320708437
 H         -3.4714143795       -0.5239587560       -7.7615960868
 H         -3.1769417370        0.9776325299       -7.6083951500
 O         -4.7485260304       -2.8138041743       -1.7635437181
 H         -5.2296839848       -3.2786925557       -2.4864986304
 H         -4.0862553328       -3.4242491009       -1.4188015606
 O         -1.2432192094        1.2960203191        5.4019900526
 H         -0.5992831280        1.8968490805        5.8034515682
 H         -2.1250683370        1.5865343379        5.7101860501
 O          1.1309528906       -4.1891769514        2.0954818902
 H          1.0965650378       -3.4079269422        2.6535638883
 H          1.2775911076       -4.9412152006        2.7002577376
 O          0.7482581480       -5.5200955349       -0.3826747967
 H          1.6691582778       -5.5162595790       -0.0687616186
 H          0.6968710137       -4.8793454005       -1.1185877805
 O          1.9559338369        1.6048687987       -5.5642967086
 H          1.8725690934        0.6500972344       -5.7562965560
 H          1.0450686484        1.9234648119       -5.4433967120
 O         -0.5619692214        1.0148638684        2.9525404273
 H         -0.9685893806        1.3794282390        3.7659047469
 H         -1.0201029386        0.1624856749        2.7894113314
 O          3.7597734447        3.9678127695        2.2281659080
 H          3.3868253201        3.5948487371        3.0537561512
 H          4.4516843794        4.6207512030        2.4875360979
 O         -1.7682137261       -3.7731931360        3.2611061427
 H         -0.9733962199       -3.7027384808        3.8293194495
 H         -2.5091611251       -3.8926190254        3.8777079752
 O          3.4080385130       -5.3549382740        0.1538733369
 H          3.5343000256       -6.2552007152       -0.2233349820
 H          3.5818071101       -4.7857517848       -0.6300184986
 O          3.3048036389       -7.6525054864       -1.1394530221
 H          2.6935840902       -8.1496117405       -0.5805455057
 H          2.7891330798       -7.3115828549       -1.8972896701
 O          4.4136777860       -1.2226306417        1.6797139898
 H          3.8751324952       -0.7970479860        0.9865971051
 H          4.2784715837       -0.7015035831        2.4958365676
 O          3.8206466837        2.4872511247       -0.7087762128
 H          3.7504674654        2.9089052632       -1.5821340377
 H          3.7879386983        3.1806165922       -0.0496271361
 O         -1.4244395402       -5.6175106697        1.3618459441
 H         -1.4770320988       -4.9124537989        2.0398136545
 H         -0.6243318767       -5.4594112022        0.8302099099
 O          0.6755201420       -3.4137452608       -2.1488292138
 H         -0.1906552661       -2.9666235223       -2.1462690601
 H          1.2321360411       -2.9642578096       -1.4885434215
 O          0.2478324426       -0.6178280659       -0.5050759179
 H          0.1807232144       -0.6177674606       -1.4904657431
 H         -0.1123054172       -1.4789132398       -0.1914898016
 O         -4.9986212239       -2.7966147312       -5.5803764212
 H         -4.5950057583       -3.3226973132       -6.2737960659
 H         -4.2661882155       -2.2625424794       -5.2035278791
 O         -3.7169098064       -4.0750841362        5.1041935701
 H         -3.4689867580       -3.5575559225        5.8958008114
 H         -4.6902989168       -4.1205450389        5.1016531046
 O          4.0940312011       -1.1794599647       -4.7156673812
 H          3.4208313214       -0.8588129851       -5.3234175192
 H          3.6172350249       -1.3862656273       -3.8704027464
 O          7.4474365289        1.8794143435       -2.9888659276
 H          6.5215597287        1.5560471569       -3.0081629420
 H          7.9696494792        1.1214492755       -2.6915380265
 O         -3.1355187694       -0.9797487256       -4.9267026341
 H         -3.3792277422       -0.4236770178       -5.6951969228
 H         -3.0021355429       -0.3936658953       -4.1633820187
 O         -3.0267515542       -7.4335961248        0.0231558808
 H         -3.5076428861       -8.0123910848       -0.5689115464
 H         -2.0781944943       -7.6257130703       -0.1214259903
 O          5.3918152193        4.9173451191       -1.3059910736
 H          5.8816773421        4.1789433314       -0.8784552056
 H          5.6691057836        4.8534283056       -2.2406588464
 O         -2.7527411708        0.8688190670        0.3026360729
 H         -2.8962423471       -0.0250751116       -0.0181423053
 H         -3.2873123495        1.4849883589       -0.2339108400
 O         -4.6271368857        3.5668435117        1.8544779205
 H         -5.1158461882        3.9546098631        2.6118249120
 H         -5.2444917106        3.5135954249        1.1209745898
 O          0.3398215192       -0.6418420400       -3.0979439236
 H         -0.1385793066       -1.2434723062       -3.7098707526
 H          0.1856128385        0.2751029188       -3.3897455164
 O          8.0751035967       -0.4548408924       -1.5934205851
 H          8.4933744351       -1.1412142069       -1.0312181541
 H          7.3601994817       -0.1057407639       -1.0328794688
 O          5.7476057868       -4.4110205322       -3.5759430770
 H          6.2033944715       -3.5835602513       -3.3207486232
 H          5.4818557342       -4.2518487688       -4.4972009755
 O          1.2971780835       -1.2833857176        2.0383922136
 H          1.6634364799       -1.6945162035        1.2285397106
 H          1.5770009825       -0.3409928548        2.0253496270
 O          1.5790297631        5.5650770369        6.5732503277
 H          2.4255411355        5.8679753824        6.2327982364
 H          0.8851820917        6.0516228835        6.0954991449
 O          0.1457242363       -0.5731680673        7.0767584569
 H          0.1417759611       -1.5031137119        7.3358963451
 H         -0.6683022673       -0.1890651841        7.4599418522
 O          3.4772692810       -4.1575459028       -2.2125290794
 H          4.3233658501       -4.2744495938       -2.6929762917
 H          3.2025982032       -3.2305867830       -2.3498960761
 O          2.4254048146       -3.4754771573        7.9637220215
 H          2.5676481807       -2.5844492439        7.5263479227
 H          2.9931367534       -3.4942281007        8.7329571619
 O          3.1314441353       -5.4525746725       -5.5755547914
 H          3.9868880524       -5.2687413163       -5.9651593813
 H          2.8374600870       -4.6068520534       -5.1848377597
 O         -0.3039593613        5.9648188031       -2.4268370669
 H          0.4662863728        6.5567482846       -2.5092525210
 H         -0.3714403781        5.7410067445       -1.4680761509
 O         -2.5421336416        0.3410589980       -2.6382914516
 H         -2.0873099183        1.1248137386       -2.2554412727
 H         -3.4410866312        0.3345424430       -2.2688242091
 O          4.1370217491       -0.1435938388        4.1031677000
 H          3.1873010882       -0.0789248224        4.3154861893
 H          4.4626191835       -1.0029594239        4.4386156084
 O          1.3693026084        3.6660207825        1.2120266611
 H          2.2614260048        3.9816733635        1.4430585574
 H          0.8549471710        3.7441226128        2.0447283597
 O         -2.0408903982        7.1500822222       -4.1971995907
 H         -1.2982007978        6.9153849942       -3.6220928458
 H         -2.7577572245        7.3766544310       -3.5721196372
 O          2.1912452705        1.1506716790        2.0274058163
 H          1.8531441500        1.9820435565        1.6694438875
 H          3.1590579520        1.2137028950        2.0317045882
 O         -4.2187578585        5.6712830979        5.4122352589
 H         -3.7880667716        5.9531100378        4.5852736940
 H         -3.5271622624        5.2462691871        5.9306213605
 O          1.1203265420        3.0655192093       -1.4312873758
 H          1.1101622230        2.8658086700       -0.4852516864
 H          1.6554344689        3.8744366631       -1.4955457385
 O          5.7967069625        0.3914815216       -0.3740969780
 H          5.2945356714        0.7810145334        0.3722376953
 H          5.3427969277        0.6261737695       -1.2107605381
 O         -0.4113022364       -7.6357171953        2.7108492071
 H         -0.8723178152       -6.9236365379        2.1950217518
 H         -1.1097592676       -8.1299095578        3.1418024108
 O          3.5516879773       -1.9246920939       -7.9330465412
 H          2.6616941268       -2.2314340639       -8.1454978261
 H          3.9653996676       -2.5988820245       -7.3730663005
 O          0.1914034092       -3.2305511975        4.9108630726
 H          1.1199223919       -2.9525787870        4.7594412961
 H          0.1991473105       -4.0267713964        5.4814038016
 O          5.0518866113       -3.2587270257       -5.9698007704
 H          4.6994901707       -2.4865500243       -5.4407576345
 H          5.9051910132       -2.9650525544       -6.2924666472
 O         -2.2420799392        3.4468105622        3.9693219257
 H         -2.7296549672        4.2381588392        3.6832729785
 H         -2.7484895022        2.6635528234        3.6859665796
 O         -4.2204353200       -5.8292045634       -2.3685516191
 H         -4.0007053774       -5.5447031232       -1.4646570737
 H         -3.5897943289       -6.5425513514       -2.5879488741
 O         -0.3069848538       -3.3654378119        7.8524640840
 H          0.6253964830       -3.3806735862        8.1260975490
 H         -0.4168389735       -4.2213710502        7.4187451444
 O          2.3074518698       -2.7014393565        0.0102630963
 H          3.2267209283       -2.5300090052       -0.2490977317
 H          2.2791420107       -3.4899819911        0.5665382486
 O          1.8001577450       -3.3370088573       -4.5712406003
 H          1.3904733489       -3.3633227951       -3.6783550335
 H          1.7155669670       -2.4228521683       -4.9001575954
 O         -6.0883660706        4.3815248466        3.9427560491
 H         -5.5392966291        4.9440131892        4.5246734349
 H         -6.2128381576        3.5581883913        4.4376579469
 O         -5.7908295605       -2.7083862720        7.1280129966
 H         -5.9664354779       -1.9005355438        6.6030628516
 H         -4.8595971336       -2.6644323822        7.3759097247
 O         -2.9028384624       -2.4807568539        7.1605840077
 H         -2.4649882121       -1.9721757990        6.4310848033
 H         -2.1670194322       -2.8616405976        7.6579526967
 O         -1.6611065292       -1.3326769014        5.1535300884
 H         -1.3548322091       -0.4279263880        5.3596750348
 H         -0.8809275018       -1.9200566561        5.1126445713
 O         -2.2807567321       -6.3921619807        5.1201442739
 H         -2.8664268665       -5.6249235132        5.2273485452
 H         -2.5428403591       -6.7956760364        4.2775318772
 O         -2.4608715111        4.2866895658       -3.3115688861
 H         -3.3516508794        4.6899787489       -3.3634967818
 H         -1.8403072601        4.9929426315       -3.1008376598
 O         -1.5053034618        2.5084469775       -1.5213277341
 H         -0.5685671113        2.6846698340       -1.7159218568
 H         -2.0136792068        3.1977564855       -1.9749783798
 O          3.4668274875        3.7257834081       -3.1953104347
 H          3.8837955921        3.1524185102       -3.8646190761
 H          2.5321564389        3.8244536521       -3.4669109798
 O         -0.8057234394       -2.2582147823       -4.8252573493
 H         -1.0343638111       -3.1025263523       -4.4275609685
 H         -1.6604189228       -1.7946562250       -4.9536964127
 O          2.6230424173        2.4459241889       -7.9594397085
 H          2.4060462123        2.2058456998       -7.0220201134
 H          2.9291891835        3.3567071363       -7.9229332437
 O         -1.9280155677        4.4636445502        6.7180400582
 H         -1.1167738149        3.9232960819        6.5925049166
 H         -1.8673539144        4.8222063280        7.6041271647
 O          5.7085074992        5.6161359200        2.8094040042
 H          6.4673196631        5.0134952745        2.6106626544
 H          5.6758238947        6.2373854349        2.0655884839
 O          0.9640991911        4.2644752552       -4.0168573722
 H          0.4831727639        4.8057615861       -3.3574132250
 H          0.9664647276        4.7879372097       -4.8330090163
 O         -3.3233684819        5.1294320210       -0.7298191492
 H         -3.6656759582        4.2461740323       -0.9548645751
 H         -3.9152222956        5.4702149960       -0.0401049793
 O         -2.8988776272       -3.8880684797       -3.8533691854
 H         -2.5954599387       -3.2595652235       -3.1687086867
 H         -3.3356975255       -4.6157092587       -3.3841910702
 O          6.9397701551       -3.5905827480        3.0480634057
 H          7.2178619456       -4.4265330345        3.4273489149
 H          6.6894039955       -3.7891393826        2.1194616814
 O         -2.2848430157        0.2000613962        8.0134434108
 H         -2.7873228911       -0.6224125423        7.9839649259
 H         -2.8232441387        0.8755347854        7.5784116627
 O          2.5263384876        2.7698158571        4.3395834347
 H          3.0075933442        2.9534699618        5.1657053370
 H          2.2443660726        1.8362281791        4.3738143302
 O          0.3249737432        4.0093058348        3.5811758065
 H          0.9868900723        3.4787057428        4.0732283079
 H         -0.5608684716        3.7929442709        3.9247555957
 O          4.0782545178       -3.7882307913        2.3549053569
 H          4.3391870641       -2.8993280972        2.0337416516
 H          3.9463363911       -4.3384365213        1.5691789422
 O          5.2033229865       -2.5425312568        4.8894837642
 H          5.8124038242       -2.9234512550        4.2316719162
 H          4.6033085549       -3.2544595787        5.1627976479
 O          2.1010465233       -6.2253954717       -3.1287638271
 H          2.5003265660       -6.2972573324       -4.0078198243
 H          2.4955504870       -5.4009086442       -2.7544296666
 O         -4.9612413258        6.3641458355        1.0712997341
 H         -5.8353952746        5.9224765580        1.1960420381
 H         -5.1251799816        7.2795278027        0.8480768423
 O         -0.4285750471        5.3126814630        0.1375210328
 H         -1.1649785020        4.6822291478        0.3205174092
 H          0.3730298755        4.7996781056        0.3578782093
 O         -0.4377775204       -5.6442861027       -3.8049383543
 H         -0.3366433478       -5.4058947487       -4.7365765704
 H          0.4574217035       -5.8900650684       -3.4882586050
 O          5.8351798290       -6.0901961820       -1.2920533887
 H          5.9350018092       -5.7011359276       -2.1700250714
 H          5.2458337032       -6.8454478105       -1.3767009411
 O         -3.0473075912       -1.9564891896        0.3453869860
 H         -2.3223861331       -1.7952449145        0.9908844643
 H         -3.2985678053       -2.8950796153        0.4398109393
 O         -0.4642238651       -7.8481052433       -0.7631931124
 H          0.0117995784       -6.9873503962       -0.6954779722
 H          0.1139666290       -8.4746280557       -0.3190325718
 O          6.4722299765       -1.8877728264       -3.1402273385
 H          7.1660445716       -1.4281236799       -2.6132238560
 H          6.4411914742       -1.4043769416       -3.9824415655
 O         -6.1119866315       -4.1532049619       -3.5738593778
 H         -5.7315613419       -3.7498717019       -4.3873956907
 H         -5.6282858932       -4.9729352712       -3.4056181037
 O          0.4086900418       -4.7265447281       -6.3009495238
 H          1.0692312489       -5.3915523997       -6.5146169405
 H          0.8575761806       -4.1301157526       -5.6386733144
 O          4.9753383901       -2.1595922069       -0.8739861372
 H          5.3556638351       -2.1570184859       -1.7693618223
 H          5.2546105404       -1.3030927717       -0.4985870562
 O          2.6052849782        6.8119744785        1.0325280632
 H          3.5468020958        7.0356865683        1.0186916258
 H          2.3653885326        6.5649928009        1.9495654729
 O          8.5485686828       -2.3057655254        0.2371179919
 H          7.9355350503       -3.0576450014        0.2102434774
 H          8.2304939764       -1.7481486476        0.9666911737
 O          6.3513203636       -4.0220382348        0.4487210022
 H          5.8049250890       -3.3523325557       -0.0188964040
 H          6.2508947594       -4.8454047938       -0.0537508110
 O         -6.2767798572        4.7147480500       -1.3546739027
 H         -6.8888784405        5.3111557386       -0.9239185557
 H         -6.8186295857        4.0185893621       -1.7849631032
 O         -6.1360206091       -0.8363105520        5.2299770210
 H         -6.7325199705       -1.2458829804        4.5811632381
 H         -5.2534408681       -0.8965648933        4.7952301625
 O          2.0910322641        7.1473917584       -2.7882653412
 H          2.3722338513        6.4406473392       -2.1587130255
 H          2.7269606506        7.0801946182       -3.5109540757
 O         -1.8584098638        7.8733111326       -0.1187137191
 H         -1.8841260334        6.9125378478       -0.2065795351
 H         -0.9484498475        8.1290676029       -0.3522057947
 O          2.7683593130       -1.5586286307       -2.5421979811
 H          1.9054643456       -1.1684266548       -2.8038587388
 H          3.0603711295       -1.0120779300       -1.7865458406
 O         -3.7108843242        7.4218056176       -2.1070519305
 H         -3.5998755171        6.5395266292       -1.6862106374
 H         -3.2173042842        8.0113038737       -1.5197709171
 O          4.6635893845        2.7232598029       -5.3619390705
 H          4.1662783507        3.3410776226       -5.9184463347
 H          4.5658665083        1.8503349527       -5.7682902817
 O          1.6171433015       -8.5000498232        1.0238223646
 H          0.8867581840       -8.2713433362        1.6244067161
 H          2.4155915062       -8.3432352763        1.5429254197
 O         -3.7268782499       -4.5918932956        0.1584885254
 H         -4.5565980819       -4.8033257058        0.6124605720
 H         -3.0098291287       -5.0921276889        0.5870785299
 O         -0.5798011552        6.4647282623        5.1207596490
 H         -0.7871468618        6.5656312649        4.1833819265
 H         -1.2108736534        5.8290622682        5.4840895682
 O         -7.5398748268        0.3564737413       -1.3869497905
 H         -7.9535686018       -0.3532826636       -1.8918710133
 H         -6.5648927706        0.2123732721       -1.5106340597
 O          1.4983121437        0.2672219751        4.6555625318
 H          1.0824071509       -0.0117615945        5.4845396188
 H          0.8014406918        0.4398574619        3.9993184334
 O          6.9430631802        2.9053300248       -0.5104540936
 H          7.3444390560        2.7095166394       -1.3774585529
 H          6.5269871448        2.0634953616       -0.2519624058
 O          4.0554450901        5.7771587903        5.0220898876
 H          3.2954817386        5.8919575464        4.4191062297
 H          4.8354554354        5.8196908386        4.4497252265
 O          0.0337379551       -5.5767178895        6.1293359163
 H          0.7003288790       -6.0245494828        5.5932019522
 H         -0.8239586875       -5.9456345258        5.8251252411
 O         -6.0862605321        3.4936251778       -5.0560807907
 H         -5.5968796662        3.4899642169       -5.8929760618
 H         -5.7513896760        4.2765022877       -4.5818905357
 O         -1.9604470288        3.4671075139        1.1804955291
 H         -1.7123077003        3.4678957113        2.1136947736
 H         -2.9205219043        3.5826301201        1.1672762330
 O         -0.1741030858        1.8389887242       -3.8789982123
 H         -1.0747293348        1.8892833227       -4.2265384732
 H          0.1835696150        2.7413368926       -3.8512011091
 O         -5.2353637100       -0.7440932443        1.0860174652
 H         -5.8988365039       -1.4341085995        0.8883282404
 H         -4.3725794038       -1.2151475484        1.0582610467
 O         -5.9369351725       -6.3420038734        3.5175562672
 H         -6.4134809513       -7.0890548219        3.8807679532
 H         -6.1092995080       -5.5918560700        4.1248516444
 O         -6.2604237417       -0.6694593632       -4.0630057920
 H         -5.9700131845       -1.2237668676       -4.7937473407
 H         -6.8161984416       -1.2307996731       -3.5019828196
 O         -6.4332486557       -4.1914400889        5.0364477657
 H         -6.3761230850       -3.7661389102        5.9244302406
 H         -6.8884738938       -3.5577051133        4.4621495430
 O         -2.6572123911        2.2195539257       -4.9595496376
 H         -3.4111911537        1.8021246245       -4.4826812525
 H         -2.5264194444        3.0599031863       -4.4737841107
 O          0.7879152532       -2.5064464622       -7.9641056922
 H          0.6715910676       -3.3687310824       -7.5305704262
 H         -0.1415089619       -2.1855600387       -8.0784959275
 O          5.2914830500       -5.6822480907        3.9322543133
 H          4.8479805907       -5.5582732471        4.7798459891
 H          4.9882497116       -4.9340172470        3.3806403653
 O          4.4325897691        0.5004488876       -7.0548035969
 H          4.0223858502        1.1354883282       -7.6584836794
 H          4.1619149447       -0.3744875270       -7.3889508332
 O         -8.3354167139       -0.5189674715        1.1171083215
 H         -9.2336513964       -0.8108265249        0.9681549597
 H         -7.9933404861       -0.2357802968        0.2435719110
 O          7.5379357485        3.8947505784        2.0223815457
 H          7.4538458678        3.6212126083        1.0964037821
 H          7.5319629698        3.0730415477        2.5384310785
 O         -6.7676038305        2.5504695140        0.3335815928
 H         -7.3175643509        2.0673786980       -0.2908217073
 H         -6.6903775961        1.9848694697        1.1372675369
 O         -7.6358397649        2.8428978955       -2.6960381609
 H         -7.3724408461        2.9175370730       -3.6204195632
 H         -7.6294268937        1.9026476776       -2.4607216151
 O          0.6692155279        5.9997208216       -6.1435591244
 H          0.7482053867        6.9063407825       -5.8433440265
 H         -0.2845440302        5.8428413679       -6.2815234921
 O          4.1568563445        6.0410433407       -4.3132116270
 H          5.1154290908        6.0802862008       -4.3160031880
 H          3.9357127461        5.2240001884       -3.7980693858
 O         -4.9045840058        5.3804980502       -3.5082520857
 H         -5.3611510770        5.1483514173       -2.6642340615
 H         -4.7924565004        6.3349045027       -3.4872525739
 O         -7.2448335845        5.0573507375        1.4705939276
 H         -7.2350994593        4.1888678806        1.0318156680
 H         -7.1354604656        4.8891399418        2.4182474915
 O         -2.4465791351       -4.0521314985       -6.5123921257
 H         -1.5751892699       -4.4548334300       -6.5858492275
 H         -2.6429835311       -4.0143462830       -5.5552805305
 O         -3.3499903045       -7.3376074432        2.7794051076
 H         -3.2235834184       -7.3100754720        1.8151821428
 H         -4.2430796752       -7.0208013810        2.9584861323
 O         -5.8216144629        1.8374350780        4.9585059568
 H         -6.0985260232        1.0241623877        5.4104482149
 H         -5.9233088139        1.6027870402        4.0153336450
 O         -6.6439358759       -2.7812041247        0.0669127172
 H         -5.8773247780       -2.8238097230       -0.5561412356
 H         -6.6350340102       -3.6271666377        0.5328138436
 O         -1.8085699505       -2.1365917780       -2.0829188950
 H         -1.9715965961       -1.2207511829       -2.3858074368
 H         -2.2334393166       -2.1891408975       -1.2098098196
 O         -3.0930747503        5.8156214851        2.9808686087
 H         -3.7688883755        5.9808404158        2.3017352646
 H         -2.2735807639        6.2568801473        2.6834412443
 O         -6.5028260663        1.0267215796        2.4787464610
 H         -5.8852295306        0.3658966987        2.0823778803
 H         -7.3604104446        0.5873680291        2.4653408029
 O          4.9769801903        0.8088604900       -2.8997697902
 H          5.0112721567        0.0973471554       -3.5550302285
 H          4.0173554744        1.0311880449       -2.8294683183
 O         -6.2253948733       -5.3760364675        1.0062145699
 H         -6.1812994890       -5.7122891465        1.9212676345
 H         -6.5116266197       -6.0954390708        0.4434686773
 O          0.4822052521        0.8180926758       -8.5358462299
 H          0.8003987725       -0.0280058263       -8.8553616665
 H          1.2483668250        1.4153968628       -8.4961822384
 O         -7.1814529606       -2.2678844175        3.1252444708
 H         -7.6325371654       -1.8077601351        2.4064796877
 H         -6.3368250600       -2.5985222646        2.7457468804
 O         -1.9066320552        5.2365620728       -6.0663225001
 H         -2.1280709277        5.9110850745       -5.3906860190
 H         -2.7466606376        4.8771911127       -6.4042966831
 O         -2.1867825879       -7.5329594622       -2.9250326199
 H         -1.6389330901       -6.9135563627       -3.4393639957
 H         -1.5837338831       -7.8784344701       -2.2518994515
 O          2.8966076010       -1.2984488302        6.6538665917
 H          2.8270647160       -1.6549338687        5.7543449524
 H          3.8509140145       -1.1408859424        6.8405827066
 O          0.8110527403        8.2486027159       -0.5386412333
 H          1.3866999669        7.8048020007        0.1036619631
 H          1.2799706246        8.2125331076       -1.3797924784
 O          5.6877980911        1.4044293521        5.5974011017
 H          5.0421064033        0.9496450742        5.0093457500
 H          5.2433094751        2.1921877888        5.9395504329
 O          0.4412621797        3.1584683886        6.4162753475
 H          0.9959310870        2.5336258956        6.9267115406
 H          0.9221842915        4.0106968217        6.4498391355
 O         -0.7536188258        6.9179476151        2.2712425131
 H         -1.0281211343        7.7288231167        1.8276840485
 H         -0.5044092280        6.3164333112        1.5323919739
 O          7.1110833162       -1.0010717093        2.2237467458
 H          6.1970663009       -1.0266102401        1.8815968425
 H          7.2086319660       -1.8051305913        2.7507909219
 O          5.3195951958        6.9621007705        0.4342760546
 H          5.3999067331        6.2339910174       -0.2229620728
 H          5.8660970068        7.6804585273        0.1182509053
 O         -2.0489519342        2.1123273439       -8.3345128049
 H         -1.4803647006        1.5976457850       -8.9144761692
 H         -1.4443871414        2.4807880805       -7.6578797697
 O          2.0027909763        1.3377619512        7.6116677703
 H          2.8578002747        0.9869527110        7.3543531207
 H          1.3979144360        0.5724195665        7.5646370205
 O          6.6153868385       -0.2026950946       -5.3312952604
 H          7.0140759036        0.6297082108       -5.0668404245
 H          5.8927037725        0.0085560745       -5.9400048443
 O          1.8308085628        6.1955443326        3.5091609849
 H          1.2944169611        6.9398578146        3.7910479501
 H          1.2263004997        5.4171009143        3.5463789211
 O         -1.7479292093       -1.7539731921       -7.7862700977
 H         -2.0813491720       -2.5575467572       -7.3405331010
 H         -1.5274988946       -1.1164744370       -7.0791806811
 O          6.3751704824        4.3206466438       -3.7991252571
 H          5.8259775181        3.7912864608       -4.3993994202
 H          7.0705461522        3.7102564892       -3.5264257441
 O         -3.9108453042       -1.0446487047        3.8066783135
 H         -3.0713686511       -1.2049398211        4.2769265488
 H         -3.8124402780       -0.1579313605        3.3978263598
 O          2.9656907363       -0.0529730765       -0.3328045232
 H          3.1788009125        0.8828178667       -0.4935818554
 H          2.0000432761       -0.1434709741       -0.3294460351
 O          2.7067130228        5.2341252680       -1.0670549355
 H          3.6613702988        5.0851274176       -1.2083470839
 H          2.6123565582        5.7455561018       -0.2370598967
 O         -4.7341805572       -3.1719974475        2.4477105649
 H         -4.4876750673       -3.9419014911        2.9599622391
 H         -4.3498244044       -2.3966619320        2.9134127403
 O          3.1914724424        4.8247622479       -6.5466409587
 H          3.6325309460        5.3603883565       -5.8580691906
 H          2.3071331014        5.2072854364       -6.6037465423
 O         -3.9655788736        3.6076097076       -6.8508332804
 H         -3.5185645203        2.9753131759       -6.2441064568
 H         -3.7668588573        3.2887652776       -7.7345196453
 O         -3.5000522672        1.3475931294        2.7671191716
 H         -4.1607105018        2.0174881933        2.5155536165
 H         -3.0964741434        1.1019119758        1.9015513257
 O         -4.8588703745        1.6000972948       -3.6514568159
 H         -5.3749721192        2.2586423949       -4.1648588854
 H         -5.3263678809        0.7498210662       -3.7523317753
 O          5.4828259541       -0.8919359432        7.0531160955
 H          5.7445870114       -1.5440336716        6.3858769118
 H          5.7322799050       -0.0231136536        6.6891763048
 O         -0.2869243081        3.1238615613       -6.5265017462
 H          0.3853514094        3.5338632579       -7.0725975448
 H         -0.8660834602        3.8380215255       -6.2008484172
 O         -3.5469560191        2.1358232486        6.3895798787
 H         -4.3547891989        2.1012602269        5.8401020799
 H         -3.2716419968        3.0594971367        6.4589729744
 O         -4.9574713901       -0.1684995257       -1.4634173629
 H         -4.8771824762       -1.0899651367       -1.7688204490
 H         -4.9926096936       -0.2290642604       -0.4833354972
 O          7.0802044662        1.4854566245        3.2665481537
 H          6.7983980177        1.4591487493        4.1980672915
 H          7.3041309005        0.5759267722        2.9930925213
 O          1.5352659880       -6.1803380682        3.8676816489
 H          2.3292604564       -6.5790224714        3.4418975742
 H          0.7936675181       -6.7457043524        3.5703420675
 O          4.8675890505        1.5892423598        1.8049108064
 H          4.6147704308        2.5293627103        1.8393162955
 H          5.6612971104        1.5107397760        2.3765350096
 O          2.5061204238       -2.4044837914        4.0828406661
 H          2.1167567391       -1.8201837423        3.3928915967
 H          3.0915619227       -3.0220469000        3.6102373719
 O          4.0404350638        3.4953116600        6.4190395924
 H          3.6015319658        3.6279794247        7.2607712090
 H          4.1532250708        4.3782551595        6.0010385940
