  180
       -305.49685129
 O          0.4884691443       -1.8748003432        0.3597842228
 H          1.1635380524       -2.2211891134        0.9646685496
 H          0.6897214020       -2.2432116296       -0.5121284425
 O         -2.1310981651        1.1251846589        2.1935902271
 H         -1.3398879335        1.3528229907        1.6782958889
 H         -1.8942295369        1.1461389319        3.1421766844
 O          2.8223829207        4.8801370591       -1.9769213317
 H          3.2797378227        4.4541524418       -2.7152792758
 H          1.8909017790        4.6364432940       -2.0953279995
 O         -2.7719313076       -5.3365696830        0.8097869331
 H         -2.9803345626       -6.2084014563        0.4770564784
 H         -2.1788301805       -4.9093778633        0.1476616535
 O          0.4543939272       -0.2342375081        5.7467890633
 H          0.0743659908       -1.0795601611        5.4714368756
 H          1.3485469257       -0.2098051538        5.3720951114
 O         -0.5568752554       -2.3091623651        4.1354262214
 H         -0.3702719121       -1.6540869450        3.4370350089
 H         -0.7977752055       -3.1368838483        3.6669460145
 O         -4.6582233752       -0.6487946557        2.1895986870
 H         -5.4863333182       -0.2213131029        1.9341599408
 H         -4.6964354480       -1.5727613998        1.8824102862
 O          0.7008073833       -0.3153654105       -2.2448197632
 H          1.4394417826       -0.4428392161       -1.6208435687
 H          0.9264776369        0.4428482100       -2.8060688263
 O          3.9635710403        1.0064502112       -2.4743393814
 H          3.7684592992        0.0617751505       -2.6428988863
 H          4.5928660089        1.0654190683       -1.7267516395
 O          0.8476636159        3.9434216561        1.2016906101
 H          0.8672560029        3.3687130803        1.9977677983
 H          1.7593487827        3.9713255552        0.8676787244
 O          3.4145688300       -1.5563022970       -3.2022655152
 H          2.6664235621       -2.0264949062       -2.7898911404
 H          3.0962215883       -1.2823918183       -4.1001051583
 O          2.8562582484       -0.7351633606       -0.5587305492
 H          2.8030373915       -0.3842561303        0.3423245991
 H          2.9264315974       -1.6870478307       -0.4719782203
 O         -0.9221480276       -4.6121477124        2.8039697190
 H         -0.1736446798       -4.8474069551        2.2430408202
 H         -1.7095848704       -4.8212865562        2.2824161550
 O         -1.8017653835       -1.6622777254        1.7065889464
 H         -1.0099487799       -1.7451411979        1.1397679691
 H         -1.9422377675       -0.7172293208        1.8673814453
 O         -0.9448538013       -4.0294096898       -3.5495240482
 H         -1.9052228161       -3.8811840658       -3.5866725030
 H         -0.5975927447       -3.2436817138       -4.0236902844
 O         -1.5207814344        5.3727402472       -1.2263465958
 H         -1.7604114493        4.5712510788       -0.6966658695
 H         -1.2384352873        6.0158586926       -0.5663172743
 O          3.0730349792       -0.4295458677        4.7448790819
 H          3.6735329948        0.1845644568        5.1667468329
 H          3.1985524895       -0.3217384146        3.7751545785
 O          0.9388114977        2.3882117359        3.3630319311
 H          0.7357934024        1.4316060705        3.2294474370
 H          0.2525404972        2.7599111187        3.9340822533
 O          0.2574643324        3.7209942073       -2.3759555253
 H         -0.3173857824        4.4167186752       -1.9939336874
 H         -0.0805589440        3.5665031027       -3.2839872578
 O          5.5060872559       -1.9251876657       -1.6200854261
 H          4.7300849004       -1.7977837827       -2.2122449482
 H          6.2760457998       -1.6507605862       -2.1179165642
 O          3.3171977137       -0.0335992810        2.0959127568
 H          3.4839183468        0.9238055825        2.2763896028
 H          4.1637996932       -0.4069658695        1.7642828456
 O         -3.1259011140       -1.0772396545        4.5529613330
 H         -3.6295043947       -0.9563213330        3.7343368191
 H         -2.3835275648       -1.6676538232        4.3451714416
 O          0.6025394456       -0.1925292796        2.6833415062
 H          0.2929355003       -0.0035005213        1.7742846301
 H          1.5324442082       -0.4237916671        2.5716907933
 O         -1.1068153560       -4.0808338698       -0.8515300717
 H         -1.0452523859       -4.2850649917       -1.8046660488
 H         -1.3112133819       -3.1203381950       -0.8392596905
 O         -1.6682250171        3.2687034124        0.3412162371
 H         -0.7079121923        3.2878941239        0.4845722493
 H         -2.0582561489        3.6890850719        1.1289737174
 O         -5.4781285414        0.2573463472       -1.4923814397
 H         -6.1052072608        0.4852957327       -0.7928269946
 H         -4.6274274697        0.0987044454       -1.0176920119
 O          5.4514411668        1.5780915210       -0.3212034933
 H          5.5680494220        0.8943750686        0.3468206754
 H          4.9426867595        2.3010903415        0.0740707759
 O          4.9922297521       -3.5003468223        1.9951650538
 H          5.1213592840       -3.9224126360        2.8442779949
 H          4.0129860328       -3.3328876010        1.9152150260
 O         -4.3147416285       -0.3875574393       -4.1074234449
 H         -4.8521791352       -0.1163243234       -3.3556550521
 H         -4.0538901752       -1.3152149086       -3.9330940745
 O         -4.0090186859       -2.9092331091        0.9480663231
 H         -3.8319369381       -3.8571779035        1.0185017906
 H         -3.1389210009       -2.4833575386        1.1429763281
 O         -0.0742668931       -1.6503261277       -4.4325709277
 H         -0.7863082959       -1.0101298366       -4.6272485852
 H          0.2757254590       -1.3234193581       -3.5769478780
 O          0.9426261746       -5.0049154125        0.6793571492
 H          1.5800011952       -5.3525900193        0.0390523220
 H          0.2205612605       -4.6122667576        0.1434979102
 O         -0.0781228254        0.9729398665        0.4009636626
 H          0.7777343966        1.2495961865        0.0340974494
 H         -0.6556737761        0.9402007162       -0.3823978234
 O         -6.4530507121        1.1271309406        0.9939217452
 H         -5.6920841397        1.7280887796        1.1478214070
 H         -7.2306726234        1.5751139093        1.3247076758
 O          2.2659996411       -0.6536336963       -5.3846992998
 H          1.4333797530       -1.1571531830       -5.3213373540
 H          2.0295778481        0.2300321456       -5.0491801846
 O          5.1772942220       -4.4472772265       -0.5742051141
 H          5.2053328725       -4.2448778239        0.3765151214
 H          5.3536410313       -3.5996950658       -1.0189286371
 O          2.0494839079       -3.0043614235        4.4177563711
 H          2.4660066081       -2.1907523169        4.7327650005
 H          1.0821054680       -2.8564997885        4.4717826829
 O          2.8322252234       -5.3483930623       -1.3059087577
 H          3.7285944724       -5.0335817063       -1.0073856540
 H          2.9909165100       -6.0368679945       -1.9512234919
 O         -0.9903203924        3.0097075306       -4.6620011977
 H         -1.7518428042        3.5683061893       -4.4039544610
 H         -1.3593883527        2.1024962869       -4.7119560392
 O          1.3971890400        1.6320302313       -4.1242171576
 H          2.1120968707        2.2887654996       -4.1316400984
 H          0.6215590394        2.0549186466       -4.5151864593
 O         -1.6566422574       -1.5239372779       -1.4462526971
 H         -2.2233882012       -0.9558964044       -0.8953818922
 H         -0.8661622376       -1.0065685859       -1.6739681146
 O          5.5290733020       -1.0141636959        0.9968858829
 H          5.4541574817       -1.2397024898        0.0513018148
 H          5.5663529406       -1.8735078989        1.4493097800
 O         -1.2356326732        3.6317158222        4.6653849393
 H         -1.5502894323        2.7050211586        4.7992318023
 H         -1.2581297771        4.0511221313        5.5244754985
 O         -2.9533547942        4.3737712470       -3.3968064210
 H         -3.4611465708        3.7676279056       -2.8382195412
 H         -2.5272911166        4.9835795579       -2.7797749434
 O         -0.5773390223        6.2056325684        1.3285808584
 H         -0.0125620931        5.3995417363        1.2809857531
 H         -0.0096929542        6.9199585247        1.6153412437
 O         -1.6629142690        1.0746737197        4.8231946279
 H         -0.8357048819        0.6798437855        5.1806661894
 H         -2.3258817379        0.3416021537        4.8798760680
 O         -3.3406972349       -2.7498270471       -3.1758904666
 H         -4.1209915162       -2.9024365690       -2.6034125197
 H         -2.7103803040       -2.2620217869       -2.6075122525
 O          3.4578779121        3.5817663409        0.3026723714
 H          2.9306363723        2.8686127109       -0.1472401028
 H          3.4983938546        4.2698373741       -0.3875593463
 O         -3.3029525209        0.0769768543       -0.0307842105
 H         -2.8335561611        0.9080563600        0.0918070377
 H         -3.6775046219       -0.1722081024        0.8435989711
 O         -1.7886218898        0.4500831470       -4.3085569873
 H         -2.7370130967        0.2105919927       -4.3736424532
 H         -1.6444662414        0.6570515819       -3.3633957553
 O          2.4111568459       -3.1016073602        1.8317219309
 H          2.2477356631       -3.0859664813        2.8110734728
 H          1.9456667602       -3.8979979952        1.4935309691
 O         -2.5877880790        4.6530661416        2.4905917058
 H         -2.1360832768        4.3125411605        3.2835335738
 H         -2.0550083494        5.4023094849        2.1823089637
 O         -4.2452503534        2.6238177339        1.3846258882
 H         -3.5488337939        2.0263221123        1.7408412316
 H         -4.0705723876        3.4753728265        1.8007097808
 O         -3.9794897203        2.6280096325       -1.4429383115
 H         -4.6263489455        1.9401394540       -1.6682652135
 H         -4.0440178867        2.7706510192       -0.4832240609
 O          3.6200547011        2.4766116383        2.8092747196
 H          2.7213599113        2.5790207556        3.1657715302
 H          3.6643136040        3.0307522032        2.0153062189
 O          3.7051620503        3.1477720858       -3.9954694055
 H          3.9428075050        2.3671291436       -3.4454025468
 H          4.2999816815        3.1502085978       -4.7445810527
 O         -1.5078895733        1.5384933879       -1.8416622128
 H         -2.3784293132        1.9639627355       -1.7167408838
 H         -0.8820597766        2.2643083508       -1.9919150938
 O          1.9469423644        1.9727561405       -1.0539836610
 H          2.6126603430        1.5446483485       -1.6404319933
 H          1.4032656341        2.5593577074       -1.6047672594
 O         -5.3441235256       -2.6167578817       -1.4111199051
 H         -5.5781309814       -1.6825786907       -1.4993515533
 H         -4.8896005963       -2.7120268045       -0.5522986019
 O          1.4675700262       -3.1039229866       -1.9908052883
 H          0.7426976477       -3.3784084575       -2.5658846618
 H          1.9540317396       -3.9173794311       -1.7619433987
