  131
       -218.47296107
 H         -2.4818742841       -0.1775339462        1.5265773431
 C         -2.1187949685        0.5550120792        0.8036283583
 H         -2.7012318361        1.4746554860        0.8984589367
 C         -2.2644922588        0.0247234734       -0.6208368941
 H         -1.7907109750        0.7271054815       -1.3074842142
 H         -3.3287207537       -0.0197206290       -0.8457922467
 N         -1.6891859407       -1.2860868431       -0.8632374884
 H         -0.6751967600       -1.2591245862       -0.8034150495
 H         -2.0422866879       -1.9685213144       -0.2036674007
 O         -0.7684469889        0.8193367928        1.1553524321
 H         -0.3021845429        1.2241549459        0.3799224657
 O         -2.3181016434       -2.6563124431        3.2051861072
 H         -3.0747624940       -2.2823883751        2.7285452524
 H         -1.9230765278       -1.9226664294        3.7092508541
 O          0.8987252393       -3.8356596778       -2.0360000632
 H          1.7630580643       -4.2014777415       -1.7860393017
 H          0.9158984462       -2.9256238664       -1.6636070401
 O          3.5712328379       -1.9774974818        1.9477436414
 H          3.0441897158       -2.7924569425        1.9507614580
 H          2.9894465641       -1.2774924019        1.6032692992
 O          0.8091565384       -1.2582085209        1.7634550059
 H          1.0222875021       -1.2496746652        2.7148172837
 H          0.1978427538       -0.5125478428        1.6085411889
 O         -5.3890950198        0.5709730606       -1.9535202354
 H         -6.0380631022        0.4881860964       -2.6529917905
 H         -5.3109044151       -0.3355937836       -1.5447151665
 O         -0.7280312127        2.1009826075        3.4908711885
 H          0.0419898426        2.6936834234        3.4838459174
 H         -0.7108784214        1.6601076831        2.6140390440
 O          4.5143501688        2.3181450656       -0.1055809088
 H          3.9275426001        3.0342143736        0.2182140406
 H          4.3778586923        2.2798076821       -1.0705451533
 O          1.6992649095       -1.0084159664        4.3183033312
 H          2.4158630769       -1.6242058713        4.4781520680
 H          2.1208606927       -0.1570548695        4.0477718950
 O         -1.0692157116       -0.5331327850        4.4554660594
 H         -1.0313102193        0.4096172313        4.2392502934
 H         -0.1554941754       -0.7979282882        4.6199475424
 O         -2.0861494081        0.4380920623       -4.5228602471
 H         -1.8065386336        0.2696940142       -5.4235431737
 H         -2.2284684741       -0.4489744638       -4.1103187913
 O          2.7875608245        0.4311443267        0.7269775254
 H          2.0256284982        0.7356960578        0.1965896114
 H          3.5304020482        0.9891458765        0.4231624813
 O          5.1123525701       -1.6624002244       -0.2694566561
 H          5.7178366314       -0.9528904548       -0.0154176706
 H          4.5997525645       -1.8480051242        0.5428585750
 O          6.3974660739        0.6333202085        0.7925017360
 H          5.7556340332        1.3071006843        0.4859229393
 H          7.2684188095        1.0163739099        0.6908177240
 O          0.5691927940        4.4860681773       -1.1540039195
 H          0.3852230873        5.4165589515       -1.2819819132
 H         -0.3252819547        4.0384429596       -1.0633694047
 O          1.7598471123       -0.7491937384       -4.4089704787
 H          2.4318099492       -0.9675830004       -3.7498775060
 H          1.1917973931       -1.5502954323       -4.5043872289
 O          0.2662172955        1.0408205368       -3.2559630513
 H          0.8554507812        0.3613836482       -3.6889968895
 H         -0.6133094960        0.9059312395       -3.6481421564
 O          2.6477691193        4.0779309836        0.7008473123
 H          2.2238920351        3.8941555061        1.5548410295
 H          1.9367556337        4.2836367138        0.0761806213
 O         -0.4939517719       -3.5443411258        1.4822992805
 H         -1.1814024265       -3.4288265120        2.1734343395
 H         -0.0701597260       -2.6588906859        1.4362591253
 O          0.8773136811        1.5850682986       -0.7535993058
 H          0.9778533010        2.5364832973       -0.8348668741
 H          0.6330620014        1.2537830221       -1.6498998634
 O         -3.2732105598        2.8471061598        3.3951325452
 H         -2.3234763521        2.5877067590        3.4650910142
 H         -3.5140582508        3.2292930560        4.2391200837
 O         -5.2092807701       -1.7798998756       -0.8183599491
 H         -4.9066461799       -1.7262884609        0.1061445445
 H         -4.6590133553       -2.4627487581       -1.2460059469
 O         -5.6856037417        2.2899236978        0.0956537511
 H         -5.5381730972        1.6775845217       -0.6576559331
 H         -6.5317501885        2.7129882270       -0.0534247457
 O          3.3300407572       -4.1956690567       -0.8154579673
 H          2.9649425789       -4.2076085787        0.0833431101
 H          3.9766892160       -3.4846082759       -0.8478206432
 O          3.9229019691        1.9884951797       -2.7143546629
 H          3.0931074727        2.4893768049       -2.9561756141
 H          4.4598615644        1.9831570414       -3.5065342464
 O          1.7422704702        3.2664057184       -3.3765195942
 H          1.1351061476        2.5015018730       -3.4793448723
 H          1.3738672528        3.7992094581       -2.6545377790
 O         -3.7120618282       -3.7718973847       -1.9737539882
 H         -4.1663598300       -4.5975959728       -2.1395512972
 H         -2.8540372756       -4.0234419986       -1.5343204379
 O         -4.5467501020       -1.5700723560        1.8645552689
 H         -5.2461831083       -2.0731389421        2.2850774554
 H         -4.7168437058       -0.6235102059        2.1037035932
 O          1.6689678122        3.4483514934        3.2435654817
 H          2.1665854038        2.5951067501        3.2995501938
 H          2.0382698971        4.0219864840        3.9150307942
 O         -1.6745299213        3.2375302719       -0.9004975810
 H         -2.3071600128        3.6043409441       -0.2513009169
 H         -2.2137255868        2.9929495814       -1.6785921602
 O          3.4389091471       -0.6797630809       -2.1582923954
 H          3.6180910462        0.2671352988       -2.2843951354
 H          4.1101809137       -1.0304495217       -1.5386582408
 O          1.1751455373       -1.4048904099       -0.9723624348
 H          1.3598336854       -1.3923496866       -0.0253634341
 H          1.9825371178       -1.0836607377       -1.4277758428
 O         -1.4569863215       -4.5405631948       -0.8763217776
 H         -0.6596844151       -4.3917934695       -1.4206507858
 H         -1.1963142717       -4.2409518776        0.0127972993
 O         -2.2346626024       -1.9190348654       -3.3653208965
 H         -2.9128872781       -2.5919799472       -3.2224155420
 H         -1.9556382367       -1.6742984429       -2.4310857693
 O          2.0776858423       -4.2978882329        1.7170949758
 H          1.1137384662       -4.1171186256        1.6232815185
 H          2.1555951084       -5.1897131483        2.0547117914
 O         -5.0854444819        0.9484961533        2.4514478515
 H         -4.4127930413        1.5226084744        2.8535711704
 H         -5.3569105803        1.3998811935        1.6356012890
 O         -3.5792813917        3.9858946619        0.8615877070
 H         -3.4474071935        3.6918782893        1.7766093157
 H         -4.3351453045        3.4771500905        0.5304522558
 O         -3.3055369331        2.3244615527       -2.8760826743
 H         -2.8602357169        1.7842189125       -3.5448779559
 H         -3.9951540280        1.7541029119       -2.5104453020
 O          0.1202021440       -2.8508916477       -4.4474621018
 H         -0.7508131576       -2.5319653856       -4.1513729794
 H          0.4608867632       -3.3630286139       -3.6914567529
 O          5.2253182444       -0.1352065632        3.2076162319
 H          5.7453065180        0.1620297848        2.4439010274
 H          4.7814815711       -0.9421761420        2.9022132504
 O          2.8899108757        1.1123753766        3.2555468932
 H          3.8260094586        0.8418110890        3.3967998372
 H          2.7336847021        0.8781087774        2.3030093636
