  114
       -193.40187543
 O          5.8352581076       -2.3130186316       -1.5311686822
 H          5.9347094646       -1.9365987216       -0.6267093892
 H          6.5682596144       -2.9166487471       -1.6516271439
 O          3.2799158523       -2.2703962922        1.0939730097
 H          2.9028545909       -2.1618121178        1.9803589465
 H          2.6810243897       -2.8806725282        0.6103079661
 O         -0.6395338704        0.3414872156        2.3776973546
 H         -0.4907116862       -0.6195551217        2.4572617237
 H         -1.6109497182        0.4472944932        2.3180302859
 O          0.3941108257        1.2417012376        4.7953283916
 H          0.1261364841        2.1644693160        4.8254890833
 H         -0.0995300564        0.8430409911        4.0566382775
 O          1.4639815618       -3.5795594118       -0.3597094500
 H          1.1239572281       -2.7750347856       -0.8082068433
 H          0.7034000289       -3.9533918291        0.1036432211
 O          4.6516802742        1.1389350040        1.5024745234
 H          4.5597858763        2.0668330867        1.2341108613
 H          4.1861772333        1.0613085579        2.3438728204
 O         -1.7998956023        1.3968070731       -0.1541083586
 H         -2.3163332001        1.6504776063       -0.9436321753
 H         -2.1366001669        1.9774666818        0.5601908799
 O         -3.0767474590        2.2789305028       -2.3688382423
 H         -3.8125595662        1.6687027026       -2.5317775539
 H         -2.3888432663        2.0751366692       -3.0327657259
 O          4.1383845842        3.6338606233        0.3503099366
 H          4.8472742219        4.2319643282        0.1125404187
 H          3.7978939186        3.2502781347       -0.4875144282
 O          2.2685165363       -1.1287669957       -4.2935249693
 H          2.6683661205       -1.4297891376       -5.1097887830
 H          2.6134294102       -1.7248948483       -3.5943810659
 O          1.5336905083        1.2682265493        1.0613429722
 H          2.0305306053        1.1295273994        1.9064368979
 H          0.6626590301        0.8710280945        1.2258506207
 O         -0.8971873452        1.6334022090       -3.8542159572
 H         -0.3336800869        1.7643740554       -3.0387710958
 H         -0.5396558625        2.2131870640       -4.5272762999
 O          2.1081333221       -1.9595662120        3.5725139899
 H          2.3417769173       -2.4167667296        4.3809357014
 H          1.1491864563       -2.0845028319        3.4344547532
 O         -2.8330511302        4.5091692272       -0.7670858871
 H         -3.3051353106        5.2625832571       -1.1230352129
 H         -2.9863418960        3.7648449697       -1.3792181438
 O         -2.2161372356       -2.5093728304       -2.3920694081
 H         -1.6181019476       -2.1107671236       -3.0436904954
 H         -2.0126219604       -2.0768905341       -1.5363960897
 O         -2.7981225316        3.1327117483        1.6530461555
 H         -2.9316772718        3.8252741571        0.9911756683
 H         -2.0030649653        3.3782886927        2.1735972366
 O          1.4620244231        3.9570277101        1.0046601117
 H          2.3926553565        4.2131986142        0.9607325204
 H          1.4856522264        2.9814853432        0.8957924706
 O          0.3850238636        2.0317248840       -1.6203219323
 H          0.2343372272        3.0127663292       -1.5306351337
 H         -0.2220740278        1.6355819440       -0.9662915444
 O         -0.0688146815        4.5504857159       -1.1584560680
 H         -0.9998270929        4.6555734942       -0.9070655272
 H          0.4594329524        4.5742887446       -0.3384109489
 O         -5.0833978829        0.4036493409       -2.5410124338
 H         -4.9387084583       -0.5442232569       -2.7496307437
 H         -5.9624435019        0.6277220443       -2.8482745162
 O         -0.3786042703       -1.0591976943       -3.8497554680
 H          0.5332412384       -1.1291289190       -4.1982841414
 H         -0.6420139260       -0.1289978780       -3.9633128806
 O          0.6422510095       -1.2389755897       -1.3711041162
 H          0.2830824671       -1.2026665596       -2.2818578977
 H         -0.1219635618       -1.1510964520       -0.7782278027
 O          5.8687762730       -1.3299134245        0.9612457266
 H          5.6550875140       -0.4072031023        1.1660580961
 H          5.0885934345       -1.8375141025        1.2258426636
 O         -5.5308975729       -2.7634578468       -0.3282783131
 H         -6.3390007828       -3.2770332995       -0.3101368721
 H         -5.2693220526       -2.6644104983       -1.2696461769
 O         -1.6746113162       -1.2673655743       -0.0454457148
 H         -1.9201981929       -0.3217673319        0.0031366087
 H         -2.2956321272       -1.7782434149        0.5003523004
 O         -3.3325917352        0.5617152219        2.4068482901
 H         -3.7602011588        0.2964256382        1.5666359802
 H         -3.4011337624        1.5273026175        2.4261252965
 O         -0.4176866638        3.2564515803        2.8427157464
 H         -0.2955197276        2.3282871855        2.6042742771
 H          0.2507805789        3.7455994886        2.3336750615
 O         -4.4524264430       -0.2201967827        0.1141760740
 H         -4.9303025016       -1.0591853911        0.1002284387
 H         -4.6287491821        0.2010200877       -0.7385897427
 O          3.2827549524       -2.7415402183       -2.4060195576
 H          4.2082706888       -2.6851004359       -2.1085100819
 H          2.8259105338       -3.3351041401       -1.8016181682
 O         -3.1320953935       -1.8114239644        3.6717764421
 H         -3.2457982016       -0.9016029562        3.3294096699
 H         -3.5205482584       -1.8274760468        4.5469906364
 O         -3.2729570386       -3.0835588455        1.2150992122
 H         -3.4369565885       -2.7542830438        2.1117565629
 H         -4.1119866317       -3.0635716205        0.7266326261
 O          2.6382818598        0.7403367976        3.4063148904
 H          1.9729994699        1.0540467591        4.0535744859
 H          2.6000437654       -0.2280110181        3.4746436623
 O         -0.8496092796       -4.3072669096        1.0968785303
 H         -1.7469867332       -3.9671328193        0.9236617037
 H         -0.9397906978       -5.2358419283        1.3144758775
 O         -0.4961133700       -2.3040385253        2.9298626084
 H         -1.3786862821       -2.2704356972        3.3344437385
 H         -0.5314201911       -3.0018072206        2.2497444032
 O         -4.7211972536       -2.2490145758       -2.8556001713
 H         -3.7287081696       -2.3573365003       -2.6939027359
 H         -4.9182073919       -2.7722226340       -3.6333969236
 O          3.1128407766        1.7366832486       -1.2559072430
 H          2.1392741102        1.6985630608       -1.3294713749
 H          3.3075340826        1.1185620492       -0.5387043437
 O          4.7450210401        0.2767751383       -3.1437027126
 H          4.1556286837        0.7481780160       -2.5377504388
 H          4.9325349001       -0.5626254211       -2.7134788491
 O          1.9267858489        1.9119600547       -4.1586143808
 H          2.3745353876        2.2423729081       -3.3756033556
 H          2.1528453531        0.9727550156       -4.1812629935
