  114
       -193.43431872
 O         -0.7687832016       -4.3776800974        1.4106830850
 H         -1.4102700985       -3.6478742535        1.4287284726
 H         -0.4034401640       -4.3614622844        0.5131790482
 O         -2.1646344205       -0.3450838459        4.6506255214
 H         -2.0061023933        0.5648830060        4.3591142298
 H         -1.3194990229       -0.7988691341        4.4855397164
 O         -2.6326013792        4.0213171084        1.7944910092
 H         -3.1482298554        4.5862319154        2.3704128468
 H         -3.2723290004        3.6464344623        1.1289103591
 O         -1.0566106814       -0.1146584913        1.3534757580
 H         -1.1005825478        0.4976352414        0.5715103864
 H         -1.6896678131       -0.8549618636        1.2047126681
 O          2.7614211495       -0.2672878101        3.2601124159
 H          3.0749240148        0.6671452405        3.2729593857
 H          3.4175344366       -0.7844076929        3.7258106155
 O         -2.5490841624       -2.2775599111        1.1574946175
 H         -2.9777262825       -2.5041924610        0.3122693141
 H         -3.2315256948       -2.0934138463        1.8340206929
 O         -1.5808427450       -1.0440596820       -1.2863710094
 H         -2.1968496944       -0.3286081607       -1.4747944128
 H         -0.7037538386       -0.7457127599       -1.5910364713
 O          0.2496938510       -1.1786888425        3.5887794874
 H         -0.1574703388       -0.8598912930        2.7705386834
 H          1.1439718508       -0.7841954594        3.5885010704
 O         -4.3343391790        3.0281397111        0.0951740717
 H         -4.1803198901        3.2350560384       -0.8413930177
 H         -4.4056014028        2.0361931599        0.1868563060
 O          0.6612479580       -0.1717839462       -2.5808692661
 H          1.1996274383        0.6241247786       -2.4022805317
 H          1.2972509181       -0.9160952618       -2.5759910424
 O         -0.2802781853        4.6434603908        0.6490246741
 H          0.0189361369        5.5227398194        0.8830338348
 H         -1.1563224246        4.5146059009        1.0719010124
 O          2.0424034252        2.0081565415       -1.8144310765
 H          2.0941064134        1.6426082744       -0.8931332602
 H          2.9703163577        2.1175751092       -2.0706379255
 O          0.9937174907        2.6264965421        2.1250892348
 H          0.2266544756        2.3280193865        2.6558799656
 H          0.6712291476        3.3453635411        1.5622876486
 O          2.9214165932       -2.7851795390        1.3675843739
 H          2.2097376597       -2.2435757715        0.9575683724
 H          2.4403278781       -3.2277939140        2.1154972900
 O          4.8290947273       -0.7799227518       -1.6847713267
 H          4.6556942344       -0.7531737670       -0.6912226527
 H          5.6143817103       -1.3146394533       -1.8020398145
 O          3.5708668261        2.2725139382        3.1039784681
 H          2.7094544348        2.6063806612        2.8139143345
 H          4.1681147210        2.3538011205        2.3402242217
 O          1.2287863176       -3.7283630036        3.1245104186
 H          0.8551577637       -2.8916166729        3.4545361640
 H          0.5214725149       -4.1031462269        2.5582536884
 O          5.1951506145        2.1285960655        0.8378506633
 H          5.2710959509        1.1757440467        0.9713009032
 H          4.9491759505        2.2428983510       -0.0901374424
 O         -1.5949513797        3.2663038546       -3.7800924087
 H         -1.3883382168        2.3637037583       -4.0489582689
 H         -0.8460419384        3.5957243391       -3.2371712961
 O         -3.9509805275       -2.9946898068       -1.1254212742
 H         -4.5491258485       -3.7160765711       -0.9304305711
 H         -4.4978805053       -2.1985491746       -1.2835420208
 O          0.3483770569        4.1009574539       -2.1185965648
 H          1.0374213191        3.4125875445       -2.0509722218
 H          0.1300269337        4.3499988747       -1.2116669087
 O         -3.3873659867        0.8782333049       -2.3728597124
 H         -3.7518615632        1.7609312545       -2.5455631799
 H         -2.7813843033        0.6849284822       -3.1253490862
 O          0.9065243637       -1.5591856561        0.1161154457
 H          0.1125708376       -1.2705963861        0.5945398430
 H          0.6412316915       -2.3641852483       -0.3828011399
 O         -2.1790695264       -2.3379173922       -3.5087262086
 H         -2.8661940872       -2.9912266590       -3.3704947386
 H         -1.9925675103       -1.9878831123       -2.5993850157
 O         -1.4812855995        0.2969488381       -4.1552673440
 H         -0.6433183984        0.1616208519       -3.6651035671
 H         -1.7890641163       -0.6010003130       -4.3434378536
 O         -1.4091280901        1.8664659334        3.1097735644
 H         -1.9267370606        2.5618345158        2.6786626503
 H         -1.3674247981        1.1120347670        2.4806325608
 O          3.1440332728       -4.2233497706       -0.8020667894
 H          3.5582201029       -5.0665274812       -0.6238786946
 H          3.1440980948       -3.7178843507        0.0584369599
 O         -4.0857097623       -1.5361812580        3.2337806102
 H         -3.3917364189       -1.0527911921        3.7503937261
 H         -4.3563599676       -2.2579852276        3.8021285027
 O          4.7647657841        1.8937717128       -2.0063045274
 H          4.8046330721        0.9134711576       -1.9546320468
 H          5.4452289031        2.1734452106       -2.6180963801
 O          2.1513672371        0.8127267863        0.5001601971
 H          1.6403068700       -0.0055134497        0.3690592657
 H          1.7089051787        1.3404284285        1.1941984150
 O          0.2402077173       -3.5805070190       -3.6845525698
 H          0.9483450217       -2.9306902318       -3.7396593060
 H         -0.6076789930       -3.1027220004       -3.7667558972
 O          4.4156610781       -0.6019454840        0.8584592183
 H          4.0705059569       -1.4454387587        1.2092409467
 H          3.6303582690       -0.0112568906        0.8786391770
 O          0.4384228696       -3.9253855437       -1.0440401908
 H          0.2567236717       -3.8989865907       -2.0085649770
 H          1.3554613839       -4.2374297618       -0.9642164500
 O         -3.8953068361        3.5282760959       -2.5949437500
 H         -3.0005660339        3.5326258545       -3.0371168520
 H         -4.4519991758        4.1101796468       -3.1115234755
 O          2.5729519211       -2.0738308234       -2.6229745799
 H          2.6537063921       -2.8666393801       -2.0742040278
 H          3.3546259567       -1.5420337070       -2.3964407488
 O         -4.8336466151        0.5057257777        1.2913735854
 H         -5.4796469003        1.0255227805        1.7732792292
 H         -4.5214634342       -0.1769986308        1.9039102971
 O         -1.1928496320        1.8188053017       -0.5577491661
 H         -0.4521009257        2.3147556790       -0.9150904748
 H         -1.9061015038        1.8435932588       -1.2044167009
 O         -5.3026677755       -0.6462645730       -1.2733417627
 H         -4.6836325991       -0.1139704887       -1.8059688666
 H         -5.2453822842       -0.2687518876       -0.3841968579
