  90
       -152.68543135
 O          2.7222103576        0.3819530228        3.3746080201
 H          2.2893319879        1.2407283040        3.4862335469
 H          3.2233799608        0.4440281135        2.5563867603
 O          4.9403014761        0.7524429914       -0.1481483029
 H          4.3672630571        1.3763293047        0.3266937686
 H          4.5030419481        0.6487646877       -1.0197004947
 O         -0.6465766882        2.4581078275        1.6078569235
 H         -1.5273271511        2.8106301562        1.8115032492
 H         -0.4963773048        2.5905137556        0.6395114148
 O         -4.2569600342       -1.9283156469        0.5516998447
 H         -4.0835016061       -1.7909305366        1.4899121379
 H         -4.6084410457       -1.0860285085        0.2221747215
 O         -3.2487031282        3.1519718691        2.0147671563
 H         -3.7232779342        3.9315535449        2.3018973379
 H         -3.8146149818        2.3705931913        2.2753994337
 O          1.2635811558        0.5198447853       -0.4429381582
 H          0.3340216805        0.5283506123       -0.7286652965
 H          1.4146309184       -0.3516059122       -0.0154178359
 O          2.8565372461        2.2391839389        0.8262749771
 H          2.4617843326        2.5351580478        1.6613892495
 H          2.1967494599        1.6419670968        0.4056431887
 O         -5.2039474200        0.5917841090       -0.1627577869
 H         -4.4553705320        1.2028102513       -0.4101930671
 H         -5.9186024549        0.7669944341       -0.7739334268
 O          4.1062104665       -2.3063851772       -2.2066375672
 H          4.4278768724       -2.2888942560       -1.2932688170
 H          3.9034376437       -1.3817950437       -2.4136507756
 O          1.4763938138        2.8694301652        3.1226999585
 H          1.4110970173        3.7315211433        3.5321923689
 H          0.6414277498        2.7242742275        2.6170511484
 O         -1.6914371553       -2.4444438471       -0.1068652058
 H         -1.4065005839       -2.6857214623        0.7982975683
 H         -2.6644285403       -2.3737726205       -0.0320375531
 O         -0.3813321451       -4.6064670424       -1.1423295070
 H         -0.2812249034       -5.1300781565       -0.3457008698
 H         -0.9227729152       -3.8341402124       -0.8763876664
 O          1.9435684266       -1.8575585908        0.5450983105
 H          2.9150428413       -1.8895715311        0.5840854750
 H          1.6923694837       -2.2738304119       -0.3167491147
 O         -3.1884994917       -1.0399596618        3.1189083837
 H         -2.9489495512       -0.9337885806        4.0403133881
 H         -2.4205139469       -0.6712875286        2.5805824573
 O          1.4954780041       -2.7887648731       -1.8619414791
 H          2.4248036696       -2.9312993873       -2.1267072175
 H          1.0164754406       -3.6313933239       -1.7958983027
 O          3.2829620835        0.4163180225       -2.2529500188
 H          3.2526307336        1.2528570315       -2.7377758821
 H          2.4811300987        0.4173260664       -1.6845294044
 O         -0.2791724988        2.8946904489       -0.9839247726
 H         -0.9370388345        3.4256576844       -1.4335419769
 H          0.5847247826        3.3755299204       -1.0468566561
 O          4.6695939404       -1.7639691719        0.5173443544
 H          5.3373510650       -2.0294219219        1.1486175530
 H          4.8341171634       -0.8028679305        0.3117255609
 O          2.8151310713        2.8775248201       -3.4713375871
 H          1.8634311019        2.6750181578       -3.6410673750
 H          3.1339434786        3.3901057318       -4.2139855909
 O         -1.1566636778       -0.1852743689        1.8007716505
 H         -0.3829272594       -0.6300140296        2.2070385507
 H         -0.9354911904        0.7604157503        1.7233154000
 O         -4.7933045576        1.1023534853        2.5084892408
 H         -4.2916702917        0.3110454654        2.7822258285
 H         -5.1147805614        0.9008456285        1.6124682895
 O         -3.1896083445        2.2121374115       -0.5928686133
 H         -3.1357297864        2.6317519830        0.2812825395
 H         -2.4588547304        1.5660580754       -0.6358375622
 O          2.0983650250        4.0500665445       -1.0564257021
 H          2.4855274955        3.7295653898       -1.8864218694
 H          2.5203123340        3.5191053221       -0.3527561496
 O         -1.3118563192       -3.2274568756        2.4703164101
 H         -2.0766411629       -2.7443307638        2.8059103108
 H         -0.5268638329       -2.7805917698        2.8183136916
 O          0.8495546180       -1.5391653082        2.9422000988
 H          1.2484405089       -1.8167383748        2.0923331091
 H          1.5004691854       -0.9146462863        3.3133029030
 O         -1.3847272871        0.1977038842       -0.9723798645
 H         -1.4450365540       -0.6078317451       -0.4271228730
 H         -1.3992125808       -0.1178425572       -1.8965270840
 O          0.7881830363        0.7814503354       -3.7512841545
 H          1.5337001964        0.2217270939       -3.5087109500
 H          0.0355189119        0.1742058504       -3.7926305874
 O         -1.5744415131       -0.7117593023       -3.5237116994
 H         -2.0137840604       -1.5771795474       -3.4028167281
 H         -2.1975236469       -0.1052359124       -3.9358077937
 O         -2.7525552714       -3.0657343630       -2.8418299885
 H         -2.0195531934       -3.6573335668       -2.6413028270
 H         -3.2209611852       -2.9216529831       -2.0145846276
 O         -1.9575382722        2.1306616391       -3.4734557302
 H         -2.3812101750        2.1644822203       -2.6103399412
 H         -1.0378458742        1.8858859725       -3.3176340907
  90
       -152.67536909
 O         -3.1550257846        1.3818173157        2.3671355255
 H         -2.5005801357        1.2688350509        1.6527735189
 H         -3.1089709056        0.5587551363        2.8799493630
 O          2.5823036318        1.0139324492       -4.0242483833
 H          2.7692128245        1.5945462620       -3.2704543610
 H          1.6797763033        0.6850213278       -3.8782342597
 O         -1.4860241020        3.3004951638        3.3712984732
 H         -1.2946587790        3.7126744361        2.5122406633
 H         -2.2188207778        2.6838626275        3.1880370385
 O         -1.9126202558       -1.6615771062       -0.5626276537
 H         -1.4320716689       -2.3072032503       -1.1184514012
 H         -2.4634579316       -1.1339714332       -1.1948744976
 O         -1.1959023583        4.2411908282        0.7669972783
 H         -1.3380817876        5.1891115861        0.7644835788
 H         -1.9701677918        3.8578819799        0.2878025210
 O          5.4529265649       -2.3480229843       -0.9300589243
 H          5.7085501721       -1.4186570394       -0.8974283085
 H          5.1615302242       -2.5011192996       -1.8354924367
 O          0.5877906741        1.8974423862        4.2415512916
 H          0.8337303050        2.2736279523        5.0873810379
 H         -0.1808321951        2.4364910096        3.9233986907
 O         -4.2115704213       -1.6107036600        1.0821272512
 H         -3.8105521918       -1.4666011151        1.9468377935
 H         -3.4883605659       -1.8593899447        0.4891768309
 O          4.7888095241        0.4669179904       -1.0155753144
 H          4.9320444101        0.5027549431       -0.0546292358
 H          4.2182863950        1.2179064032       -1.2325893580
 O          0.6257180399        3.6207217333       -1.2644764872
 H         -0.0240637912        3.0915737989       -1.7592149982
 H          0.1675680102        3.8802468153       -0.4490148065
 O         -1.7400315799       -1.6277664899       -3.9957730561
 H         -1.5124113092       -2.4277122678       -3.5016664661
 H         -2.5166782485       -1.2404711770       -3.5741491150
 O          0.2745309587       -0.1344133405       -3.0656940812
 H         -0.3864005618       -0.6504439907       -3.5770557141
 H          0.7563571289       -0.7839721147       -2.5228083080
 O         -0.5668938531       -3.3921886984       -2.1358623935
 H          0.3348836385       -2.9934933087       -2.0876054476
 H         -0.4677906626       -4.3198523258       -1.9208389013
 O         -2.6501187896       -1.1018152162        3.5284248245
 H         -3.1658345007       -1.4203051556        4.2704507189
 H         -1.7450610822       -0.8933546679        3.9073153196
 O          3.1440795235       -2.2895680585        0.4817738491
 H          3.0420127328       -1.3274138665        0.6256243891
 H          4.0158698462       -2.4248628102        0.0562512883
 O          1.7223537460       -2.1149573382       -1.7983683338
 H          2.4910626657       -1.8739724283       -2.3743191505
 H          2.1319079862       -2.3022395961       -0.9263841229
 O         -1.2528982291        1.7653348465       -2.0561075880
 H         -1.2066451304        1.5017520230       -1.1126741342
 H         -0.6429105824        1.1463418377       -2.5184488339
 O          3.8366916590       -1.1548881980       -3.0502789296
 H          3.4567052657       -0.4797385169       -3.6507744921
 H          4.2267240893       -0.6198374218       -2.3372344468
 O         -3.2966377467       -0.0451016002       -2.1362924230
 H         -2.6603257620        0.6796810903       -2.2956990660
 H         -3.9436641415        0.3087123941       -1.5024827300
 O         -0.2766717272       -0.6534146710        4.4961455478
 H          0.3761047115       -1.2222409161        4.0620284912
 H          0.0655393759        0.2635892906        4.4356436834
 O         -4.6646263919        0.8966401544        0.1032463316
 H         -4.3719322668        1.2907241220        0.9422056836
 H         -4.7784669913       -0.0433237549        0.3406401506
 O         -3.1928529549        3.2956514529       -0.7423932938
 H         -2.6874874017        2.9554019213       -1.4911670263
 H         -3.8215011498        2.6039853274       -0.5000105238
 O          3.0556125432        2.6156450998       -1.7142606247
 H          3.5635461311        3.3530001358       -2.0562328402
 H          2.1650620201        2.9816025111       -1.5050674428
 O         -1.1710607064       -2.8703365605        1.8716138519
 H         -1.7500595103       -2.4080346058        2.4948558418
 H         -1.3918617474       -2.5273026869        0.9966642998
 O          1.3083646510       -2.1893496242        2.7513065156
 H          0.4618397224       -2.5524177055        2.4225940330
 H          1.9848852141       -2.5552175611        2.1699639937
 O         -1.1486525247        0.7349462586        0.4660546309
 H         -0.2014124031        0.5938913101        0.6800999899
 H         -1.4407443470       -0.1496333597        0.1738277568
 O          1.3974899602        0.0115846327        1.0540012829
 H          1.3078638463       -0.6324464228        1.7780222722
 H          1.8210191162        0.8089253637        1.4248358527
 O          2.2638565583        2.3246925851        2.1288373018
 H          1.8283965126        3.0041741874        1.6096706594
 H          1.7302520626        2.2033604650        2.9375490770
 O          0.3443882956       -4.7378264198        0.1413591164
 H         -0.3277938304       -4.4223704069        0.7558374058
 H          1.1598527737       -4.2844566790        0.3654871977
 O         -3.4039073810       -4.0687601979       -0.7747187766
 H         -4.2696298950       -3.6822926556       -0.9149604726
 H         -2.9457593885       -4.0817613386       -1.6172516824
  90
       -152.67227695
 O          1.1881283321        2.0675372543        4.2941237903
 H          0.9804375285        2.8930096088        3.8293341171
 H          2.1187117023        1.8727581269        4.1228560964
 O          4.9157317535        1.6451991064       -0.8627609786
 H          4.8226687913        2.0642050729        0.0203538012
 H          4.2880216999        2.1287495529       -1.4174129243
 O         -1.6918994485        2.9252942875        2.0743485396
 H         -1.2193753280        2.3710388960        1.4339425354
 H         -2.5408753269        3.1146118756        1.6235305933
 O         -3.8557930525        2.7191146449        0.5020806679
 H         -3.8457502707        1.8011021238        0.8247971006
 H         -3.5929298586        2.6439833318       -0.4248749400
 O          0.3595217371        4.3700107414        2.9065905451
 H         -0.4784066776        3.9151610103        2.6515261656
 H          0.1151046357        5.1075046702        3.4655936173
 O         -0.2617656479       -0.1887351603        3.7392722441
 H          0.2773069615        0.5939548259        3.9666041630
 H         -1.1822594964        0.0990418028        3.9217869994
 O          1.5401168550        3.4638028642        0.6015156501
 H          1.2574541497        3.9657395977        1.3818780551
 H          0.7533846244        2.9666745749        0.3200603331
 O         -4.0025515852       -0.6250616707       -1.9991807321
 H         -3.2509603120       -1.1787562511       -2.2840639910
 H         -4.3443075068       -1.0501386341       -1.2016650442
 O          2.4877088255       -1.2117921335       -2.4750266085
 H          3.2909435467       -1.1248120049       -1.9178867331
 H          2.1222153458       -2.0852179504       -2.2543179137
 O          4.1919114053        2.8436135881        1.4217362489
 H          3.2773893443        3.0723726641        1.1988889449
 H          4.1380985076        2.1902722429        2.1349101284
 O         -1.6184505194       -1.8715022532       -2.4565656787
 H         -1.2929864090       -1.0229323339       -2.8250176471
 H         -1.2196495433       -2.5650919582       -3.0361263880
 O         -0.1735562785       -3.5158962187       -3.9374901116
 H          0.5219475232       -3.7410633791       -3.3014883385
 H          0.2099609854       -2.8033393307       -4.4882780922
 O          4.5671283644       -0.9596163649       -0.7973292872
 H          4.6772608973        0.0275843983       -0.7703913664
 H          5.4053671864       -1.2949786432       -1.1175406201
 O         -3.1625774987        0.1552449468        1.1822351104
 H         -3.6705638118       -0.6344016690        0.9374759392
 H         -2.2285563366       -0.0516089936        1.0193276034
 O          1.7233117858       -3.7962463750       -1.8856328267
 H          2.4989039414       -4.3579044209       -1.8864386008
 H          1.1476751998       -4.1137237403       -1.1495484292
 O          1.2327033994        1.0926461314       -2.0581040902
 H          1.7375220820        0.2565614042       -2.1673969623
 H          1.8636636784        1.8240985094       -2.1350769309
 O         -0.9219923297        0.5239122050       -3.5038769097
 H         -0.1109154000        0.8183418365       -3.0417209002
 H         -1.6433325684        1.0522523017       -3.1286271124
 O          2.8419274405        3.3030652315       -1.7985062436
 H          2.4554350896        3.4698341789       -0.9171351897
 H          3.0071065495        4.1582397653       -2.1957322362
 O          0.9381346924       -1.2212232698       -4.8731074929
 H          0.2506655652       -0.5729285205       -4.6784481650
 H          1.6105173656       -1.1197986990       -4.1845784322
 O         -1.7850280977       -2.8812485600       -0.0042797970
 H         -1.7035660729       -2.5358213393       -0.9246504941
 H         -1.3424936091       -2.2051330731        0.5531013486
 O         -2.6971947190        0.9434483545        3.7788045834
 H         -3.0768018194        0.5530759365        2.9744541257
 H         -2.3503454479        1.7979789779        3.4792924959
 O         -2.9774588635        1.7847184604       -2.0457834506
 H         -3.3940274036        0.8824025695       -1.9428752236
 H         -3.5286203121        2.2475832411       -2.6784090206
 O         -0.6390618613        1.9503679590       -0.3007224549
 H          0.0064382648        1.5189416139       -0.8906365031
 H         -1.4562265959        2.0083028771       -0.8110126192
 O         -4.3217441532       -2.1734313635        0.3331684250
 H         -3.4296416818       -2.5844545131        0.2250388772
 H         -4.8668895244       -2.7962785172        0.8125311730
 O          0.0934420669       -4.7717696977       -0.0260351423
 H         -0.6362459865       -4.1107982174        0.0393627956
 H         -0.3124244784       -5.5841605149       -0.3317709796
 O         -0.5507497093       -0.6913514578        1.0962213166
 H          0.2943378285       -1.1000500665        0.8620330771
 H         -0.4381601008       -0.4547404117        2.0434933699
 O          2.6688402893        0.2432193279        2.5671449851
 H          1.9274966976       -0.2392389700        2.9472922687
 H          3.0176226640       -0.3288942218        1.8791649269
 O          1.1941701557       -2.6947066244        1.6245922673
 H          0.4569850476       -2.8421052644        2.2378144237
 H          1.2648216171       -3.5135212844        1.1283204878
 O         -1.2036638237       -2.7767462545        3.1325474358
 H         -2.1151254021       -2.6079428216        2.8882528522
 H         -0.8924374270       -1.9892825069        3.6014851092
 O         -0.5014904675        4.7474458325       -1.2595907275
 H         -0.5485110374        3.8248244657       -0.9796480135
 H         -0.4685957602        5.2763643412       -0.4616777280
  90
       -152.67187196
 O          3.0212370734        0.3615505560        4.0246444088
 H          2.0997472421        0.6530611029        3.8754791913
 H          3.1899960192        0.4690506893        4.9611957971
 O          3.8483564407        1.6795690558       -0.8308703365
 H          4.0214147801        1.2077738423        0.0150788835
 H          4.6578473087        2.1407693144       -1.0576840994
 O          0.1404686721        3.3965166712        2.0817556511
 H         -0.5727671636        3.5214017221        1.3996217205
 H          0.1407925150        4.2045835041        2.5963555969
 O         -3.7220989411       -1.4059118677       -3.3096488537
 H         -3.3552715670       -2.2452244279       -3.0155064458
 H         -2.9803839263       -0.9402759008       -3.7175065308
 O         -1.6134278904        3.8433316506        0.1897876123
 H         -1.0661682104        3.9946007285       -0.5955236306
 H         -2.3813931511        3.3303685781       -0.1073280539
 O          4.0025873480        0.2216065421        1.4092284811
 H          3.0418096989        0.0428606653        1.2935439639
 H          4.0880656769        0.4209320113        2.3492420078
 O          2.1707389957        3.7720442694        0.1934023359
 H          1.5993141356        3.5242968250        0.9369722027
 H          2.6666478432        2.9871136920       -0.0771017654
 O         -1.4081641350        1.7766382348       -2.3556998358
 H         -0.7868446828        2.5114346113       -2.2293672343
 H         -2.2623489779        2.0650370679       -1.9958548069
 O          1.3712700078       -2.9726420701       -1.7791336576
 H          1.9433443433       -2.2523333433       -2.0684785503
 H          1.6083921508       -3.1326926552       -0.8520555575
 O          0.4656663292        1.0338494451        3.3726895408
 H          0.3237600466        1.9231501544        2.9968307886
 H         -0.4198977697        0.6947991354        3.6326153390
 O         -2.4315593038       -3.0370957620        0.0000618405
 H         -2.1800742560       -2.1435745582        0.3623043709
 H         -2.1031881302       -3.0296242386       -0.9285915562
 O         -1.3030382878       -2.8825291295       -2.4209959753
 H         -1.2417291961       -2.0246437094       -2.8891157518
 H         -0.3764423118       -3.1291442316       -2.2648872898
 O          4.3683910826       -2.1502643818       -0.0247467269
 H          3.6243517463       -2.6536402790        0.3321259971
 H          4.4816167808       -1.3896462915        0.5661938402
 O         -5.0006309856       -2.2127638083        0.3233750961
 H         -5.6190741847       -2.7970605172       -0.1170264093
 H         -4.1141929359       -2.6161085089        0.2212184542
 O          1.8298696425       -2.8822102603        0.9676170325
 H          1.0314333574       -3.4167241513        1.1465686792
 H          1.5427178869       -1.9488079895        0.9957730161
 O          1.6996117092       -0.1947132501       -4.1825486782
 H          2.0882224507       -0.5001244509       -5.0029213865
 H          2.2645858565       -0.5297971642       -3.4614023542
 O          0.3590232338        3.8449811118       -1.8402396484
 H          0.9941334468        3.9774471216       -1.1077949923
 H          0.9217056930        3.5217323708       -2.5669364470
 O          3.2759669647       -0.8119090493       -2.0654420090
 H          3.4578769645        0.0801571930       -1.7349990056
 H          3.7665323244       -1.4046959010       -1.4515496682
 O         -1.0655732905       -0.5031632337       -3.7395723986
 H         -1.2244178836        0.3381382521       -3.2703001161
 H         -0.1367570879       -0.4565751684       -4.0077702139
 O         -0.3216800220       -2.2232962025        3.2525241420
 H          0.6000270062       -2.2733406151        3.5789072844
 H         -0.5005362290       -3.0696110147        2.8217910482
 O         -4.7012014748        0.0538036009       -1.2033722730
 H         -4.4008926788       -0.4088810750       -2.0090334251
 H         -4.8666220775       -0.6484063130       -0.5487852749
 O         -3.7217651926        2.4853802009       -1.0445641481
 H         -4.0997206885        1.5702874616       -1.0374150138
 H         -4.3980729136        3.0415304828       -1.4328960565
 O          2.1882067560        2.4243010914       -3.2843419466
 H          1.8834711390        1.5927864334       -3.6803306533
 H          2.7192891180        2.1862683332       -2.5183230572
 O         -0.5083132972       -4.2478260678        1.3436798562
 H         -0.5479696850       -5.1933625549        1.2025204610
 H         -1.2628906936       -3.8527801454        0.8284398829
 O          2.3412502015       -2.3403501314        3.6828526703
 H          2.4794919836       -2.6380180812        2.7712423453
 H          2.7074609806       -1.4445175936        3.7506000152
 O          1.3288659833       -0.2555594306        0.5670514573
 H          0.3860896642       -0.2325853509        0.8313817802
 H          1.3354508060       -0.1483906254       -0.3877542560
 O         -1.2735220363       -0.8458491223        1.1594039409
 H         -1.9050691456       -0.1882780836        1.4963490789
 H         -0.9306035978       -1.3094244674        1.9583511438
 O         -3.1180729147        0.6602601622        2.5231966232
 H         -3.2356886329        0.2130410349        3.3629253244
 H         -4.0137050713        0.6978669321        2.1195857925
 O         -2.5853296069        3.3772921073        3.1348421214
 H         -2.7261607470        2.4458367715        2.9100613049
 H         -2.5242615804        3.8376250149        2.2944782817
 O         -5.5948591486        0.4638280584        1.5061866507
 H         -5.6186905753       -0.4839162201        1.3224536161
 H         -5.6584048000        0.9078021595        0.6553899104
