  90
       -152.68543135
 O          2.7222103576        0.3819530228        3.3746080201
 H          2.2893319879        1.2407283040        3.4862335469
 H          3.2233799608        0.4440281135        2.5563867603
 O          4.9403014761        0.7524429914       -0.1481483029
 H          4.3672630571        1.3763293047        0.3266937686
 H          4.5030419481        0.6487646877       -1.0197004947
 O         -0.6465766882        2.4581078275        1.6078569235
 H         -1.5273271511        2.8106301562        1.8115032492
 H         -0.4963773048        2.5905137556        0.6395114148
 O         -4.2569600342       -1.9283156469        0.5516998447
 H         -4.0835016061       -1.7909305366        1.4899121379
 H         -4.6084410457       -1.0860285085        0.2221747215
 O         -3.2487031282        3.1519718691        2.0147671563
 H         -3.7232779342        3.9315535449        2.3018973379
 H         -3.8146149818        2.3705931913        2.2753994337
 O          1.2635811558        0.5198447853       -0.4429381582
 H          0.3340216805        0.5283506123       -0.7286652965
 H          1.4146309184       -0.3516059122       -0.0154178359
 O          2.8565372461        2.2391839389        0.8262749771
 H          2.4617843326        2.5351580478        1.6613892495
 H          2.1967494599        1.6419670968        0.4056431887
 O         -5.2039474200        0.5917841090       -0.1627577869
 H         -4.4553705320        1.2028102513       -0.4101930671
 H         -5.9186024549        0.7669944341       -0.7739334268
 O          4.1062104665       -2.3063851772       -2.2066375672
 H          4.4278768724       -2.2888942560       -1.2932688170
 H          3.9034376437       -1.3817950437       -2.4136507756
 O          1.4763938138        2.8694301652        3.1226999585
 H          1.4110970173        3.7315211433        3.5321923689
 H          0.6414277498        2.7242742275        2.6170511484
 O         -1.6914371553       -2.4444438471       -0.1068652058
 H         -1.4065005839       -2.6857214623        0.7982975683
 H         -2.6644285403       -2.3737726205       -0.0320375531
 O         -0.3813321451       -4.6064670424       -1.1423295070
 H         -0.2812249034       -5.1300781565       -0.3457008698
 H         -0.9227729152       -3.8341402124       -0.8763876664
 O          1.9435684266       -1.8575585908        0.5450983105
 H          2.9150428413       -1.8895715311        0.5840854750
 H          1.6923694837       -2.2738304119       -0.3167491147
 O         -3.1884994917       -1.0399596618        3.1189083837
 H         -2.9489495512       -0.9337885806        4.0403133881
 H         -2.4205139469       -0.6712875286        2.5805824573
 O          1.4954780041       -2.7887648731       -1.8619414791
 H          2.4248036696       -2.9312993873       -2.1267072175
 H          1.0164754406       -3.6313933239       -1.7958983027
 O          3.2829620835        0.4163180225       -2.2529500188
 H          3.2526307336        1.2528570315       -2.7377758821
 H          2.4811300987        0.4173260664       -1.6845294044
 O         -0.2791724988        2.8946904489       -0.9839247726
 H         -0.9370388345        3.4256576844       -1.4335419769
 H          0.5847247826        3.3755299204       -1.0468566561
 O          4.6695939404       -1.7639691719        0.5173443544
 H          5.3373510650       -2.0294219219        1.1486175530
 H          4.8341171634       -0.8028679305        0.3117255609
 O          2.8151310713        2.8775248201       -3.4713375871
 H          1.8634311019        2.6750181578       -3.6410673750
 H          3.1339434786        3.3901057318       -4.2139855909
 O         -1.1566636778       -0.1852743689        1.8007716505
 H         -0.3829272594       -0.6300140296        2.2070385507
 H         -0.9354911904        0.7604157503        1.7233154000
 O         -4.7933045576        1.1023534853        2.5084892408
 H         -4.2916702917        0.3110454654        2.7822258285
 H         -5.1147805614        0.9008456285        1.6124682895
 O         -3.1896083445        2.2121374115       -0.5928686133
 H         -3.1357297864        2.6317519830        0.2812825395
 H         -2.4588547304        1.5660580754       -0.6358375622
 O          2.0983650250        4.0500665445       -1.0564257021
 H          2.4855274955        3.7295653898       -1.8864218694
 H          2.5203123340        3.5191053221       -0.3527561496
 O         -1.3118563192       -3.2274568756        2.4703164101
 H         -2.0766411629       -2.7443307638        2.8059103108
 H         -0.5268638329       -2.7805917698        2.8183136916
 O          0.8495546180       -1.5391653082        2.9422000988
 H          1.2484405089       -1.8167383748        2.0923331091
 H          1.5004691854       -0.9146462863        3.3133029030
 O         -1.3847272871        0.1977038842       -0.9723798645
 H         -1.4450365540       -0.6078317451       -0.4271228730
 H         -1.3992125808       -0.1178425572       -1.8965270840
 O          0.7881830363        0.7814503354       -3.7512841545
 H          1.5337001964        0.2217270939       -3.5087109500
 H          0.0355189119        0.1742058504       -3.7926305874
 O         -1.5744415131       -0.7117593023       -3.5237116994
 H         -2.0137840604       -1.5771795474       -3.4028167281
 H         -2.1975236469       -0.1052359124       -3.9358077937
 O         -2.7525552714       -3.0657343630       -2.8418299885
 H         -2.0195531934       -3.6573335668       -2.6413028270
 H         -3.2209611852       -2.9216529831       -2.0145846276
 O         -1.9575382722        2.1306616391       -3.4734557302
 H         -2.3812101750        2.1644822203       -2.6103399412
 H         -1.0378458742        1.8858859725       -3.3176340907
