  600
      -1018.72652802
 O          0.9071413688       -4.7868621202       -0.6106914844
 H          1.6134778656       -4.1588236367       -0.8737964650
 H          0.0829347500       -4.4080840033       -0.9481772207
 O          0.3856248724       -1.9866954677        0.1888818995
 H         -0.0273025024       -2.2761238243       -0.6353245175
 H          0.5611130253       -1.0250249117        0.1377282392
 O          1.9324093267        4.9481421318       -6.6394204530
 H          1.5980299223        4.0299271865       -6.7170201215
 H          1.1215331028        5.4797059230       -6.5990213929
 O         -4.0726408357        0.0271366808        0.2479644234
 H         -4.4314627796        0.8636890881        0.5992261449
 H         -3.6145422437       -0.4059903226        0.9802809057
 O         -2.2801318383        0.0076571654        2.3950005229
 H         -2.8999205206        0.6376002319        2.7848433809
 H         -1.8647349656        0.4953832999        1.6502331346
 O          3.7401390799        3.2535747174       -3.9423819418
 H          3.0676704728        3.8339238656       -3.5308456827
 H          4.5421359443        3.3875705041       -3.4070223372
 O         -1.0538023554        0.5123591076       -4.6463842482
 H         -2.0265756435        0.5712379628       -4.7075928608
 H         -0.7895701287        0.0194423733       -5.4421618914
 O         -0.4916209962       -0.2793942984       -2.1920022616
 H         -0.6770295252       -0.1344535311       -3.1419924059
 H         -1.0534274903       -1.0142242474       -1.9221736402
 O          2.1859419414        2.1805261705       -1.6506457195
 H          1.7632519484        2.1236062891       -2.5250396020
 H          1.7081536292        1.5540590499       -1.0654634139
 O         -1.5900325127       -2.6617910902        1.8062075187
 H         -1.8829338204       -1.8422877971        2.2198052352
 H         -0.7580998945       -2.4262458285        1.3434715948
 O          2.1907277255       -0.6884054229       -2.0913331241
 H          2.6264627300       -0.2639695815       -2.8441111309
 H          1.2309525261       -0.5123364258       -2.1385544963
 O         -0.3235047434       -7.2342382025        0.2736730647
 H          0.6429049042       -7.2424714607        0.4158186062
 H         -0.4897244381       -7.5837210167       -0.6128960986
 O         -7.0308202049       -4.3899601250        3.5680111477
 H         -6.5719161790       -4.2459842384        4.4065874519
 H         -6.6494459241       -5.2038237902        3.2047700206
 O         -0.7086878145        2.4344170045       -2.0690840254
 H         -0.6810471090        1.4726868422       -1.9616468907
 H         -1.3232582120        2.6390910185       -2.7843998205
 O         -3.4725075366       -2.8779987536       -0.0877822936
 H         -2.6090850685       -2.9837663776        0.3483632358
 H         -4.0304642385       -2.5143170505        0.6163135816
 O         -3.0746666546        1.2433538778       -1.8922267846
 H         -3.0023022947        0.2695210585       -1.9734811782
 H         -3.9683935538        1.4148665276       -1.5752233986
 O         -1.5941593432        3.1475951928        4.2119611283
 H         -1.1861274008        3.1925497524        3.3360725236
 H         -0.8572537987        3.1675648474        4.8358268942
 O         -0.5935758031        7.9409722130       -3.7653412196
 H         -1.5544383852        7.8366250017       -3.6643642248
 H         -0.2182842804        7.4159548799       -3.0363686306
 O          0.7826977937       -0.9972193241        2.6363995927
 H          1.7334164444       -0.9699158051        2.4526722088
 H          0.6351035209       -1.7994395841        3.1738750243
 O          0.8414899012        0.6821452234        0.1217870214
 H          1.3475751433        0.9901618071        0.8834693050
 H         -0.0615613656        1.0469439495        0.2042227928
 O         -4.0436078375       -0.7429027516        4.5377335805
 H         -3.8158574929        0.1988353810        4.4528489029
 H         -3.2371684649       -1.2685442331        4.7315030105
 O         -3.2172930275       -1.3553441975       -2.2662697010
 H         -3.2631825647       -1.9375798869       -1.4742461492
 H         -4.1332877071       -1.2416029777       -2.5659138482
 O         -0.0463514708        4.5831497844       -3.6688487996
 H          0.7603411251        4.8796273533       -3.2125259823
 H         -0.1356304973        5.1181309065       -4.4867893732
 O          2.9854500597        2.0926462160        1.1933982109
 H          3.2985864912        1.2193545204        0.8901040934
 H          3.3527887789        2.2177910858        2.0772822320
 O          2.3618366959       -1.7411583061        5.3287404461
 H          2.7072682922       -2.5146093454        4.8406325040
 H          1.4286197244       -1.9645212633        5.5481663721
 O          2.7892203128       -3.1864719859       -1.5185396402
 H          2.5091942476       -2.2762066230       -1.7478638493
 H          3.6253808482       -3.0889714529       -1.0245555194
 O         -1.8849231839       -5.3651085165        1.8112297109
 H         -1.9642603995       -5.4126010250        0.8284318771
 H         -1.9592078840       -4.4195851826        2.0200012172
 O         -2.6662038700        2.8177347615       -3.9803329939
 H         -2.9854098799        2.1909337625       -3.2999377081
 H         -3.2498716712        3.5927673301       -3.9497140621
 O         -2.1812552303       -2.6118244694        4.7263345990
 H         -2.3708956916       -2.8637403284        5.6554876642
 H         -2.6309134326       -3.2645677784        4.1731120656
 O          0.4445377205       -3.2950070593        3.9572982903
 H          0.5230448417       -3.9175084488        3.2046497961
 H         -0.4892973617       -3.2824603846        4.2217501992
 O         -6.8380304284       -3.2997655875        1.0317187079
 H         -6.9095097384       -3.5951885149        1.9537643379
 H         -7.7344578832       -3.0735660372        0.7184283294
 O          2.6587954202       -2.8506359387        1.2140894606
 H          3.1294261486       -2.0370826451        0.9367463256
 H          1.7390232173       -2.6846323464        0.9251763735
 O         -3.0830188195       -4.2188511599       -3.1911250658
 H         -3.1192308799       -5.1865201260       -3.1407012328
 H         -3.9039618264       -3.8965411981       -2.7892540081
 O         -6.7535096470       -0.3221624477        2.0305554337
 H         -6.5699648874        0.4715006128        2.5481534772
 H         -7.3309081914       -0.8767574481        2.5915984409
 O         -3.7079080132        0.3613786134       -5.1199356318
 H         -4.1470626346        1.1974171593       -5.3627722953
 H         -4.2448536194       -0.0062973290       -4.4040447221
 O         -0.9022227747       -3.0579151659       -1.9191735199
 H         -1.6941299299       -3.5202287548       -2.2520541391
 H         -0.3555399602       -2.8578263712       -2.6913588176
 O         -0.6492430427       -4.4453682275       -5.3391298389
 H         -1.0544113131       -4.8714387922       -4.5741997250
 H         -1.3260517295       -4.3501727582       -6.0293928265
 O          0.3994945715       -2.1110448648       -4.1957710494
 H         -0.4975829694       -2.2589715305       -4.5544807100
 H          0.8081807055       -1.4363016726       -4.7551116662
 O          1.0067412106        2.1818245711       -4.1322418057
 H          0.2764034456        1.5378357654       -4.1735467743
 H          0.5712044697        3.0371789118       -3.9156320025
 O         -6.6534296253        4.8387967552       -2.3598327115
 H         -7.0932986699        4.2355268588       -2.9870715308
 H         -6.7407640305        4.4125679949       -1.4899787817
 O         -2.8569310354       -6.4832755661       -6.2174266354
 H         -2.6926334601       -5.7047809843       -6.7701232279
 H         -3.7954738355       -6.4723029492       -6.0163326716
 O         -4.6155481595       -1.8735470441        2.2077424635
 H         -5.4615396646       -1.4120322097        2.0333937738
 H         -4.2931462028       -1.4490802990        3.0295949230
 O         -2.2369195128       -2.1858123776       -4.6564989562
 H         -2.5561234710       -3.0840754037       -4.4746120877
 H         -2.5125124746       -1.6936158757       -3.8644760697
 O          1.6084386289       -0.2556620824       -5.7785775905
 H          1.3435908115        0.3975239016       -6.4321431415
 H          2.2297494118        0.1926387846       -5.1535157962
 O         -1.1111014757       -1.0163989081       -6.8635155792
 H         -1.6424206471       -1.5709085925       -6.2614152830
 H         -1.7585521649       -0.4678436745       -7.3444963400
 O          2.7286303193        6.7047170349       -4.7228226154
 H          2.0343343342        7.3557141239       -4.8345467942
 H          2.5393625439        6.0042077139       -5.3800238155
 O         -2.4264735991       -5.4808370648       -0.7382626372
 H         -1.7302336385       -5.5145891325       -1.4157251499
 H         -2.8301227325       -6.3634240644       -0.7327599555
 O          3.4946455919       -0.4579972716        0.3117631837
 H          4.4564298728       -0.3931533876        0.1684019024
 H          3.0586787639       -0.4579045147       -0.5570632640
 O          1.5751166250       -4.4189394472       -3.6438981156
 H          2.1810828230       -4.0858239213       -2.9650310683
 H          1.1634352739       -3.6225858750       -4.0294349353
 O         -0.9871622014       -0.1086867001        4.7665844601
 H         -0.8854472625       -1.0261682866        5.0707287122
 H         -1.2690334283       -0.1368709117        3.8331593454
 O          1.4126030793        5.9036818042        1.1797185651
 H          1.9689559732        5.3573394965        0.5959689924
 H          1.6197091984        5.5775016865        2.0831835722
 O          5.7649807570        0.8396664887        2.7347163294
 H          4.8353061809        0.6203372514        2.9226360295
 H          6.3137471055        0.2846170178        3.3107618396
 O          5.2171111819       -1.1087866887       -2.3445745160
 H          4.9762696721       -0.2076712085       -2.0522824643
 H          5.9037015900       -1.0191873326       -3.0323467398
 O          0.0005478921        3.5514650948        1.9781169867
 H          0.2876228684        3.6564736226        1.0514894425
 H          0.4922109445        2.7920596410        2.3508999647
 O         -1.2965204453        5.7206773822        0.6320935154
 H         -1.7106881364        4.8994685925        0.9682483484
 H         -0.3402283743        5.6666129567        0.8247507082
 O         -5.6541482331        4.4992593930        3.8099082204
 H         -4.7320171185        4.7744755772        3.6866072662
 H         -5.8956967075        4.7901477876        4.7165676835
 O          0.5788452279        4.0703392050       -0.6062648474
 H          1.4055894097        3.6120232771       -0.8409561068
 H         -0.0799133971        3.5319669856       -1.1003040176
 O          4.5565607620       -0.6222535415       -7.7513809393
 H          3.9170299766        0.0554370030       -8.0348337021
 H          4.0590544356       -1.3176610220       -7.2926502713
 O          4.4562196570        4.2008192156        2.4748399703
 H          4.9395654283        3.6300219571        1.8522684788
 H          5.1005829202        4.7591714738        2.9262230142
 O          3.1862929098       -1.4624730117        7.8640405350
 H          3.7954064505       -0.7203188657        7.8359688282
 H          2.9051127018       -1.5897981559        6.9271422991
 O         -2.2795814922        1.0982862922        6.7145716347
 H         -1.8328647295        0.6960993820        5.9345722280
 H         -1.6930792667        1.8125647843        7.0202157600
 O         -5.5669246765       -0.3709199932       -3.2648482619
 H         -6.4049644464       -0.8516633349       -3.1244483228
 H         -5.6217037211        0.4219739387       -2.7060450064
 O          4.3872825731        3.5530754994       -6.4812506355
 H          4.0747141769        3.4096466349       -5.5536023279
 H          3.7936811605        4.2307195890       -6.8244796763
 O         -0.3159972283        6.1965389355       -5.7710245295
 H         -0.4554368079        6.9717436550       -5.1897624986
 H         -1.1947826581        5.9538938416       -6.1377171990
 O          4.3461139338       -3.2435623453       -3.6922710680
 H          4.4529589120       -2.4152679380       -3.1892335985
 H          3.8932494130       -3.0113161047       -4.5186057783
 O          1.2410231166        0.6785206967        6.0173124700
 H          0.4470251045        0.4992349818        5.4782499042
 H          1.9103025425        0.0592949488        5.7064270689
 O          1.8476455806       -4.8519393809        5.6845054473
 H          2.1084298502       -5.5716758642        5.0893344224
 H          1.3745064247       -4.2207980381        5.0954921220
 O          5.9575662524       -3.1375537596       -6.1421467346
 H          5.0275232477       -2.8883578046       -6.2256523343
 H          6.0066265654       -4.0702525356       -6.3508155780
 O          1.9286668270       -6.8982157605       -2.0234614868
 H          1.4151342906       -6.2424436547       -1.5081232010
 H          2.8185296604       -6.5050277572       -2.1041093067
 O          5.5002073780       -2.2226651836        2.3598158917
 H          5.4018993626       -2.5130231697        1.4367661989
 H          6.3585808050       -2.5427176457        2.6784326926
 O         -0.0376840372       -2.1279825602        6.3899739633
 H          0.0623104504       -1.6405182213        7.2195583556
 H         -0.2430046357       -3.0564209914        6.6250241451
 O         -4.3939101271        2.6402668368        6.3638455385
 H         -3.9392935114        3.5010546563        6.3498432075
 H         -3.6878049374        1.9914010160        6.5811084176
 O          1.5218821984       -6.9231028330       -4.6968025757
 H          1.4577689510       -5.9524446005       -4.6485548401
 H          1.7366859530       -7.1623008105       -3.7754734760
 O          0.7379822462       -5.0933946106        2.0307485582
 H          0.9170702528       -4.9579845553        1.0765818823
 H         -0.1873619275       -5.4196157151        2.0446601021
 O         -2.3250937236       -4.0207365157       -7.4231154430
 H         -1.6425497825       -3.7493587225       -8.0483598331
 H         -2.9009877294       -3.2391839965       -7.2802559243
 O         -8.1699227993       -4.0368378017       -2.2448177841
 H         -8.5977178452       -3.7414989829       -1.4316148422
 H         -7.9133130008       -4.9648139081       -2.1323027846
 O         -2.7787177318        3.7253908990        1.5478056807
 H         -2.9799638386        4.2044205146        2.3626361759
 H         -3.6060502047        3.2799652813        1.2757979971
 O          2.3760168931        5.0821809581       -2.5984790616
 H          2.6810364381        5.8988427361       -3.0148886724
 H          2.7318904626        4.9999220452       -1.6996394262
 O         -9.0124296954       -2.2684970509       -0.1595272036
 H         -9.4404675918       -1.7400940038        0.5490694670
 H         -8.7346377428       -1.6238015357       -0.8180276102
 O         -5.7644375660        1.8647850950       -1.7562817749
 H         -5.3332547239        2.6797919304       -1.4140347828
 H         -6.4856425399        1.6179001303       -1.1419679247
 O         -3.8269047045        1.8529531381        3.8599982435
 H         -4.3119420452        2.1632163413        4.6451529407
 H         -2.9596576091        2.3094071445        3.9487564595
 O          0.8585152530        2.4562345678       -6.7188734631
 H          1.0301187088        2.3541726541       -5.7487744750
 H         -0.1119529360        2.5736336464       -6.7818647271
 O         -3.1525129730       -7.7306484168        1.9836916577
 H         -2.6633059785       -6.8795650522        1.9839557730
 H         -2.4899887059       -8.3966311507        2.2144735493
 O         -2.8647682862        0.6886409372       -8.0543010526
 H         -3.8401644471        0.5951654963       -7.8754036409
 H         -2.7905160435        0.8394162390       -8.9953154435
 O         -5.5336128601       -5.9439243160       -4.6239546704
 H         -6.1904766276       -5.9848068088       -3.9156163958
 H         -4.7289214584       -6.2894758229       -4.1971682239
 O          3.2179997953       -2.3909915189       -6.0635781129
 H          2.6229882340       -3.1197357912       -6.3626593614
 H          2.6226198760       -1.6307479330       -5.9188547446
 O         -7.2732587213        2.6324984483       -3.8038383725
 H         -6.6642784887        2.3214909271       -3.0967481735
 H         -8.0876379937        2.1100846999       -3.6517963442
 O         -5.4561814091        0.7361276894       -7.6653510231
 H         -5.5309744643        1.5034757014       -7.0781150701
 H         -5.9324496684        0.0157697136       -7.2188738892
 O          1.5318265419       -4.2291016469       -6.8747692407
 H          1.0552585042       -3.8153860902       -7.6127520867
 H          0.8346066759       -4.3945743858       -6.2078579562
 O         -6.7201080770       -0.9585922069       -5.8235221155
 H         -6.3495840339       -1.8575356903       -5.8134509585
 H         -6.2402769595       -0.4795689638       -5.1337982202
 O         -1.0297788324       -7.7577420656       -4.5654927028
 H         -1.5694082860       -7.3997102768       -5.2912259820
 H         -0.0958412036       -7.5789963298       -4.8133221426
 O         -5.2811546106        2.5410761738       -5.5824072364
 H         -6.1080894110        2.5098133342       -5.0589861855
 H         -4.9010832252        3.4042883181       -5.3839609347
 O         -1.8026141053        2.6950002568       -6.5374750664
 H         -2.0495572621        2.6039787310       -5.5941162026
 H         -2.2445866901        1.9783210790       -7.0262887188
 O          3.7086591666       -5.9013133163       -6.1266427443
 H          3.1176712707       -5.2646614212       -6.5488848914
 H          3.1022714915       -6.5315133357       -5.7081391799
 O         -6.6256247476       -6.2694977925       -2.0322613529
 H         -6.0011473323       -5.8369600625       -1.4006799027
 H         -6.5627400499       -7.2077631175       -1.8571032131
 O         -5.3596353949       -6.2033914376        2.2583127853
 H         -4.7556520773       -6.9587271163        2.3100386188
 H         -5.3028818025       -5.8975234360        1.3272161344
 O         -0.5648273881       -4.6899803946        6.9706699161
 H          0.3538834817       -4.9750990822        6.8532833174
 H         -1.0044996588       -4.9897624677        6.1470885650
 O         -6.7314344183        2.0496266147        3.5316257524
 H         -6.3788647163        2.9564266733        3.6213688523
 H         -6.8625905559        1.7385894516        4.4622312382
 O         -3.9821833668       -4.1995714447        3.3784907241
 H         -4.4334476023       -4.9737827067        2.9827573883
 H         -4.2623399300       -3.4271230183        2.8481013708
 O         -5.2027966329       -3.8131632512        5.7550258141
 H         -4.5394325740       -3.6864801016        6.4483136983
 H         -4.6803037645       -3.9516375479        4.9357953297
 O          1.5296325912       -9.3732148310       -1.0664277832
 H          1.7908357747       -8.5561945601       -1.5372161801
 H          1.8228164684       -9.1993512795       -0.1648393000
 O          4.6926586136        1.4126569985       -1.5122257938
 H          5.1996100935        1.8859324428       -2.1874288790
 H          3.7568502035        1.7170851419       -1.5707701845
 O          3.5857876224       -5.2896294455        0.4720733030
 H          3.8336604818       -5.2792424126       -0.4607194472
 H          3.2234152794       -4.4008305384        0.6863458692
 O         -0.8017095681       -9.1118867878        1.9944798920
 H         -0.3947394784       -9.9052019648        1.6498910929
 H         -0.6336565571       -8.3861721410        1.3225417374
 O         -9.1083303047        0.9518377942       -2.8357316206
 H         -8.9036250239        0.0627693548       -3.1575919995
 H         -8.7845683905        0.9625523397       -1.9203000690
 O          4.2505316154       -5.5951668818       -2.2824618031
 H          4.1117329374       -4.7086478707       -2.6709206187
 H          4.7547744834       -6.0636153283       -2.9919523869
 O          5.2230785438       -2.8877235415       -0.3212257647
 H          5.7956137168       -3.6457573302       -0.5503017835
 H          5.4025665168       -2.1860661175       -0.9757446157
 O         -5.5325676202       -3.2093354092       -2.4322094858
 H         -5.6416163151       -2.4904330171       -1.7733802897
 H         -6.3758074406       -3.6836267663       -2.4176830861
 O         -0.0536307913       -2.7477410810       -8.5572684952
 H         -0.3613166059       -2.0644629319       -7.9098555600
 H          0.2978287396       -2.2788744470       -9.3124510868
 O         -3.1566694571        7.0534486763       -3.2421462109
 H         -2.7171987044        6.3838073878       -2.6572745350
 H         -3.8973178161        7.4066927848       -2.7364576115
 O          3.5084040779        2.0850892489        3.9855558560
 H          3.7952561662        2.9539677008        4.3042530764
 H          3.7038259189        1.4681770938        4.7121144431
 O          1.0106057751        1.5056102364        3.2485485265
 H          1.9745115094        1.5506892392        3.3785173931
 H          0.7896975681        0.5648171230        3.0690837417
 O          6.6290661443       -5.0614647085       -1.0956023408
 H          5.8464800369       -5.5867547217       -1.3201395900
 H          6.9387725756       -4.7105715068       -1.9618301793
 O          5.7574724798        2.7040452837        0.6246855045
 H          5.3285011522        2.1532404182       -0.0594093981
 H          6.6027155023        2.9736980366        0.2665429991
 O         -2.0529047790       -0.9469738593        8.4769622287
 H         -2.2613726177       -0.2082769498        7.8730974479
 H         -1.1287497292       -0.8163450240        8.7218693268
 O          8.7778490632        1.0272547342        2.3799097236
 H          8.3358790088        1.8415767347        2.6944818412
 H          8.5269564714        0.3573657507        3.0221130963
 O         -0.5566062320        5.6509965869        3.5917951100
 H         -0.1930145888        4.9509443836        3.0101659822
 H         -0.1659268270        6.5099905693        3.3482591137
 O          4.9729085886        6.3154872343        0.8002155372
 H          4.6716942834        6.8630443885        1.5478684933
 H          5.0463942802        6.9182019302        0.0263620949
 O          6.1667982499       -0.1404613796        0.3117393514
 H          6.0789396919        0.3710331273        1.1472937604
 H          6.7208960033       -0.9072790790        0.5273779875
 O          5.9880492744        6.0618740636        3.8988331653
 H          6.7836445897        5.9825019396        3.3618599664
 H          5.5145444206        6.8477121080        3.5910803311
 O          3.3929528580       -3.5614525828        3.6646309503
 H          4.1664321657       -4.0890642329        3.4160353400
 H          2.9987147916       -3.2918906008        2.8118000978
 O          3.4367413007       -0.5252245094        3.0761918744
 H          3.1556138540       -0.8631355910        3.9386135523
 H          4.0554794468       -1.1726611379        2.7062270812
 O         -2.0579697914        5.0616982343       -1.9416376851
 H         -1.3280619234        4.8026021988       -2.5427391999
 H         -1.6749757532        5.2904227863       -1.0771806853
 O          2.2894048529        8.3842641791       -1.7216761508
 H          1.6047748116        7.6738734506       -1.6413878690
 H          1.9702583247        8.9911428114       -2.3882841323
 O         -4.2516981700        3.8463839919       -0.9915925073
 H         -4.3957532361        4.6116670670       -0.4146706316
 H         -3.4299115191        4.0475077441       -1.4677383481
 O          3.4624050346        0.6214186542       -4.1676693472
 H          3.3810758893        1.5826949955       -4.0003696488
 H          4.2574389151        0.5330029252       -4.7218481379
 O          0.9969592779        3.3202530592        5.2426626091
 H          1.6259682140        3.1284731991        5.9692775825
 H          0.9973061987        2.5191885223        4.6888844680
 O          5.3462245445        4.2021738556       -1.9325809983
 H          4.6688635375        4.2117945927       -1.2251934681
 H          5.3036702064        5.0593222035       -2.3942152259
 O          0.3595012898        8.1821868088        3.1719294121
 H          1.0058443785        8.0525267971        3.8905635291
 H          0.8929342826        8.4472163937        2.4062523820
 O         -3.1538875812        5.6374982004        3.5201862362
 H         -2.1632668560        5.5613323796        3.6006157406
 H         -3.2829335585        6.4921085294        3.0866189153
 O          5.2312473614        6.3145417826       -3.5944794674
 H          4.4454742084        6.5312788460       -4.1161140656
 H          5.8214301452        5.7897267488       -4.1830333299
 O          6.9675534926       -3.9267224210       -3.4548760678
 H          6.0515067166       -3.6320635369       -3.6433807077
 H          7.4507742351       -3.1350720011       -3.1752066309
 O          7.4238717678       -0.5902598194        4.4671522079
 H          6.6366672714       -0.9570538000        4.9154107494
 H          7.8692186402       -1.3998934129        4.1748893205
 O          5.2117833638       -5.3170540220        2.6049979840
 H          6.0913045444       -5.0526472441        2.2772504652
 H          4.6749922182       -5.4006395020        1.7905953638
 O          2.2588458804       -7.6061279363        0.9865689329
 H          2.3129861694       -7.5455947829        1.9501668708
 H          2.7389610641       -6.8185025113        0.6675807286
 O         -5.4826577793       -3.2816842337       -5.1197698677
 H         -5.4040305586       -3.0878882996       -4.1657894794
 H         -5.5185164087       -4.2556350408       -5.1545510550
 O         -2.8945206576       -3.1829575748        7.2423287257
 H         -2.2431218508       -3.8483821623        7.4934813326
 H         -2.6653452712       -2.3747054514        7.7514145727
 O         -0.6787673092       -5.6779952599       -2.8055839125
 H          0.1929684775       -5.2853240410       -3.0119632553
 H         -0.7336752716       -6.5208116953       -3.2750188124
 O         -6.0598591113       -1.3390540436       -0.6371264318
 H         -5.2625603711       -0.8283132721       -0.3283028053
 H         -6.2840069484       -1.9486342461        0.0835950232
 O          9.3121921959        1.7469388223       -0.1963504024
 H          8.9387164690        2.6344378675       -0.2715621794
 H          9.1770086648        1.4620940667        0.7249350374
 O          2.4750018814       -6.4426023979        3.4905429266
 H          3.3735954453       -6.1259040884        3.3550764835
 H          1.8885716493       -5.8514828230        2.9516153608
 O         -2.6768920301        5.2511989243       -6.5707656716
 H         -2.3795848722        4.3269237327       -6.6889927394
 H         -3.3381680568        5.2323001449       -5.8734649100
 O          6.4318588889        2.1748174483       -3.5587363030
 H          6.2303393682        1.6354134023       -4.3328284767
 H          6.9985503873        1.6188442953       -2.9817861151
 O          8.4240407123       -1.9203980151       -2.1236705485
 H          8.0522415030       -1.0013171297       -2.1675140696
 H          9.2436510610       -1.9005335182       -2.6152493993
 O          8.1690109871       -1.9741553367        0.5617284083
 H          8.8473697224       -1.3876363970        0.9010925125
 H          8.3093096598       -2.0576154919       -0.4053102962
 O          7.7429266043       -3.1655685170        3.7465807935
 H          8.1158009044       -3.7974762288        3.1252722215
 H          7.2649903686       -3.7126982772        4.4076248061
 O          5.7171233239       -6.3527519542       -4.3137519585
 H          5.0999948329       -6.1643945369       -5.0423904314
 H          6.3517363930       -5.6269150208       -4.2754035030
 O          6.2740869400       -4.8697467297        5.2008847687
 H          5.8405259728       -5.2833393226        4.4446536168
 H          5.5733102196       -4.6081635937        5.8157135399
 O         -5.1743528397       -5.0609237566       -0.1654098841
 H         -4.3108395974       -4.6437658533       -0.3501414753
 H         -5.7583021755       -4.3478000580        0.1567080056
 O         -1.8525086693        8.1388122661       -0.6771862287
 H         -2.0131070037        8.2659839038        0.2758786787
 H         -1.8882627349        8.9955322618       -1.0988712459
 O         -7.0729800516        3.5939539908        0.1643564398
 H         -7.8467808676        3.1230387171        0.4983816722
 H         -6.9943055094        4.4323657952        0.6877764745
 O         -3.4482243404       -6.9430164920       -3.1979421453
 H         -3.5738886480       -7.3880022315       -2.3464003162
 H         -2.7215241033       -7.3865549436       -3.6493983546
 O         -6.6121880371        5.7262989849        1.6056332754
 H         -5.7705059548        6.0295199521        1.2311873366
 H         -6.3835899246        5.3458739507        2.4747321832
 O          4.3404735952        0.5765511601        6.0718044302
 H          4.5685282496       -0.3136349466        5.7375789529
 H          5.1682430031        1.0952401293        6.0251918442
 O         -4.4399880233        4.8720936188       -4.1587778883
 H         -3.9903294491        5.7158038777       -3.9416507962
 H         -5.1531258671        4.7858801347       -3.5054868874
 O         -3.9032136269       -1.9138277379       -6.8442460909
 H         -3.7492554259       -1.1032036015       -6.3331916227
 H         -4.4559910278       -2.4707725686       -6.2696357024
 O          4.1381304552       -3.8483096022        6.6546464058
 H          3.3048621368       -4.2253255727        6.2839265340
 H          3.8806292038       -3.3490790568        7.4379537893
 O          0.3396353350        6.6470970642       -1.5213909697
 H          0.4752376800        5.7388431895       -1.1701960218
 H         -0.3921312058        7.0517500088       -1.0259825559
 O          3.0522304781        1.6066233074       -8.0453248236
 H          2.1687637357        1.8844261832       -7.7585661426
 H          3.6494498611        2.2711552557       -7.6721116157
 O          6.5800961703        4.5187653148       -5.0073865132
 H          5.9666512610        4.2487438783       -5.7079950949
 H          6.6551848276        3.7484532887       -4.4164089961
 O          5.5377595428        0.9196155913       -5.9073858795
 H          5.3658142529        1.7918417906       -6.2798471694
 H          5.2781845473        0.2790599609       -6.6290986972
 O          6.8586896434       -1.1088466258       -4.4939539447
 H          6.6871626919       -1.9064545947       -5.0222555925
 H          6.6293875407       -0.3771981726       -5.0755740736
 O         -1.0005358974        3.2969299040        7.6454375228
 H         -1.6283245981        3.7145138552        8.2350119484
 H         -0.6642315244        4.0114634646        7.0464331852
 O          7.6014239459        0.5594278361       -1.8030056217
 H          8.3400261063        0.9772648868       -1.3067512760
 H          6.9243958364        0.3786052243       -1.1079333752
 O         -0.9668413244       -8.8420993411       -1.8956776130
 H         -0.1097126524       -9.2454213160       -1.6468962128
 H         -0.9374445809       -8.7058717949       -2.8498455795
 O         -7.7560490646        0.6692131712       -0.4671326471
 H         -7.9666974147        0.8507301224        0.4536669630
 H         -7.1796086432       -0.1327947735       -0.4677431830
 O         -5.5790821266        7.2582663423       -1.8477726945
 H         -5.9906125890        6.4023835346       -2.0914817526
 H         -6.3004866578        7.8620959381       -1.6753772879
 O         -8.7826312131        2.0105284483        1.8723164687
 H         -9.5113951775        2.5029301600        2.2480845214
 H         -8.0505667827        2.0286903420        2.5397340764
 O         -4.2478672980        6.2499411714        0.2952186626
 H         -3.3031700124        6.4366339720        0.3013154863
 H         -4.6266509112        6.7418158856       -0.4534952648
 O         -1.6149028862        1.5786175133        0.4111255549
 H         -1.8181081825        2.4398786779        0.8075706757
 H         -2.1427358467        1.5024484475       -0.4097997794
 O         -4.9996498262        2.2876328801        1.2817533285
 H         -5.1586722902        2.1614441081        2.2260796257
 H         -5.7646067926        2.7475788928        0.8814700463
 O          4.3923283030        4.3273979947        5.3937416580
 H          4.8900697086        3.7927102325        6.0164582553
 H          5.0078858557        4.9604693991        4.9945043758
 O          3.3497173408        4.4335655466       -0.1121249385
 H          3.2656398258        3.5652296524        0.3491547530
 H          3.9468526870        4.9947263560        0.4301307193
 O          2.8247135807        2.7579296037        7.1789128548
 H          2.2643824213        2.5549083490        7.9564215514
 H          3.1913022260        1.9180099086        6.8808761792
 O         -8.0104958186       -1.5369749679       -3.4315600356
 H         -7.9111902814       -1.5172363748       -4.3965790551
 H         -8.1450678550       -2.4587595557       -3.1679416619
 O          6.6259915670        1.9474116501        5.6260270308
 H          6.7649486429        2.5061617583        4.8404595403
 H          7.1953279714        1.1842820864        5.4773926584
 O          7.5564365043       -4.5417087218        1.3772069437
 H          7.7507085309       -3.6256385805        1.1149016399
 H          7.3695514347       -4.9914356075        0.5394280458
 O          4.1511293446        7.9348360567        2.8311457058
 H          3.5326941374        8.3389257942        2.1942910394
 H          3.5958406930        7.7569585101        3.6138484530
 O         -5.9738433448        5.1467964118        6.3744694423
 H         -6.1440747263        4.3044964993        6.8045491183
 H         -5.0460631253        5.3625607721        6.5539520143
 O          7.8197917652        4.0498611857       -0.9885498864
 H          6.9073611936        4.0651606665       -1.3777796847
 H          8.3978125420        4.3662727973       -1.6820619030
 O          2.3653450920        5.5081661328        6.8852182652
 H          2.9856532242        5.0251233773        6.3025068630
 H          2.3655219711        4.9965915338        7.6964374078
 O          2.1372841886        8.4333599148        1.0689059002
 H          2.2782069232        8.6754423634        0.1449656269
 H          1.8998516852        7.4737997228        1.0500705820
 O         -3.3514093126       -8.0692126237       -0.6953244277
 H         -3.3596768872       -8.0416196352        0.2853156568
 H         -2.5406875965       -8.5342151452       -0.9539934546
 O          1.0685862545        2.2664079861        9.1396957629
 H          0.3143390861        2.6389635041        8.6513154678
 H          0.9303288470        1.3050635194        9.1240838956
 O         -0.0431399985       -7.6099254516        4.1749191502
 H         -0.3035137315       -8.2014795250        3.4500950931
 H          0.8790434969       -7.3741890053        4.0300793152
 O         -6.8255405750        1.3419713380        6.0533565161
 H         -6.7460350648        0.3781307237        6.1260787581
 H         -5.9808564890        1.7170999343        6.3452805258
 O         -6.3470044344       -1.3585396360        5.6684081417
 H         -6.1282015071       -2.2712615712        5.9314936416
 H         -5.5159454649       -1.0628056686        5.2350528577
 O         -3.1890928919        5.1418681848        6.2247907997
 H         -3.2230917801        5.3117747792        5.2658178132
 H         -2.2765172302        5.3502267578        6.4648020165
 O         -1.4924426086       -5.3915911873        4.5840550885
 H         -2.2878298578       -5.4334262935        4.0492373023
 H         -0.9945435535       -6.2177596584        4.4222136170
 O         -8.1461475613       -1.8114067915        3.7625919095
 H         -8.0439070423       -2.7661744551        3.6675655275
 H         -7.5839105076       -1.5736273595        4.5376694571
 O         -9.8435967087       -0.6802429242        1.8503985089
 H         -9.4514329615       -1.0725724415        2.6436589288
 H         -9.5241876473        0.2326167533        1.8087246371
 O          2.1395300553        4.9611735143        3.5308996261
 H          1.7305099363        4.3285266672        4.1740508276
 H          2.9822646061        4.5799010377        3.2234232018
 O         -0.3518199143        5.4707164736        6.2960401657
 H          0.5950796845        5.5500854402        6.5121036537
 H         -0.3791140464        5.4450513431        5.3184174817
 O         -2.1472610442        7.8237999344        2.0260960975
 H         -1.7826193045        6.9994067571        1.6314124090
 H         -1.4247631927        8.1850476319        2.5558861169
 O          5.1600475458       -1.8272263426        5.1759917444
 H          4.8666518237       -2.5649667340        5.7472993729
 H          5.0376637674       -2.1451674123        4.2678461831
 O          7.1738287948        3.0653109895        3.1845986770
 H          6.4886746251        2.4760158734        2.8085432734
 H          7.2376494699        3.8429941648        2.6015737907
 O          2.3538281501        7.2710229698        4.7466009637
 H          2.2764687981        6.3820527369        4.3110481405
 H          2.4148765925        7.0727960485        5.6857349412
 O          0.7447069765       -0.3629635704        8.3730204870
 H          1.5886645895       -0.8321509723        8.4970462095
 H          0.8746762951        0.1290623043        7.5167964745
 O          7.3083843716        5.2246324421        1.5063436188
 H          7.7111477335        4.9145465836        0.6849340169
 H          6.4471646680        5.6092286037        1.2275657252
 O          4.9776534017        7.8511590724       -1.3461349166
 H          4.0563019046        8.1219687513       -1.4789135459
 H          5.2446824056        7.4083139010       -2.1654912130
