  309
       -524.43903347
 O          0.4401955399       -0.9350835280        5.2925870885
 H         -0.5295343855       -0.8518809836        5.4084452911
 H          0.5901932906       -1.8754507575        5.0785999982
 O          2.8922754537        0.3675644872       -0.6359918731
 H          3.3858540967       -0.4356110822       -0.3870913008
 H          2.8940195517        0.3608864370       -1.6110447596
 O         -3.2522376500       -5.8010063808        1.1385819457
 H         -3.1238103006       -4.9126693829        0.7309940310
 H         -3.2373158549       -6.4218578019        0.4085111085
 O          0.8237553690       -1.4623346699       -2.2221186941
 H          0.0416699472       -1.5338937792       -2.7941065020
 H          1.0992603121       -0.5331772650       -2.3007696161
 O         -5.7534550420       -4.7677477969        1.5554884949
 H         -5.0244734999       -5.3866338165        1.7117235879
 H         -5.5914370085       -4.4421606721        0.6413163526
 O          7.0928903367       -0.9118607348        3.8056479214
 H          7.8982625788       -0.6887750114        3.3120578144
 H          6.5379619705       -0.1076118320        3.7901527648
 O         -2.5529939546        6.0388501197        2.6247641277
 H         -2.8566220863        6.5078747293        1.8405823702
 H         -1.9793509044        5.3202015028        2.2832671366
 O          1.7407759313       -2.8727374289        2.0542254254
 H          1.4085168936       -2.9784635652        2.9691102004
 H          2.5129415925       -3.4862720769        2.0079695510
 O          0.4733201825        1.7831704594        6.3825350711
 H          1.3360079291        2.0351461516        6.0121052747
 H          0.4618274613        0.8202646198        6.3960995481
 O          1.0459019828       -3.4502136021        4.5540123219
 H          1.9772060049       -3.7218392098        4.7800139063
 H          0.5157676886       -4.2495062339        4.5704754144
 O          8.2269801853        0.4597481980       -1.9885919611
 H          8.3266234522        0.5541587043       -2.9380104343
 H          7.2806418236        0.2274381030       -1.8383891512
 O          1.2918524399        3.6939676030       -4.5351814451
 H          0.8867203634        4.4027447085       -5.0385972691
 H          0.7941755730        3.6541876749       -3.6984889636
 O         -0.6004715297       -5.4289959520       -1.4106129398
 H         -0.0318384786       -6.1918137896       -1.2577874860
 H         -0.4537324606       -4.8600895062       -0.6239462925
 O          5.4054533899        0.2159305443        1.1582064614
 H          4.7184739255        0.9116880423        1.2603164026
 H          5.1396995127       -0.4602742067        1.8089722017
 O         -6.1013858972        4.1143180567       -2.0859105806
 H         -6.7964070279        3.5798867528       -1.6753853779
 H         -5.6639098069        3.5006687294       -2.7093044877
 O         -1.4453651370        5.0816226295       -4.5617798852
 H         -1.0484584391        4.7039254754       -3.7453358434
 H         -2.2230827050        5.5542012923       -4.2424463732
 O         -2.1956493287       -0.5701598140        5.2516885544
 H         -2.7254543247        0.0112569941        5.8013390814
 H         -2.2186260841       -0.1627458789        4.3504844595
 O         -7.2769274108        2.1122830544       -0.6537745788
 H         -7.3770878982        1.3623409875       -1.2672412118
 H         -7.8856079298        1.9339525379        0.0818652443
 O          0.3460532780       -4.3413491022       -3.7551096645
 H          1.2503531324       -4.0086904500       -3.6242278610
 H          0.0797588471       -4.7506847360       -2.9116974661
 O          3.2392229569        0.1793024966       -3.3106030872
 H          3.8390522341       -0.3803689276       -3.8273155881
 H          3.3878150176        1.0856662256       -3.6342088533
 O          0.6688314230        0.8988552236        3.3328389427
 H          0.6194590499        0.1752725356        3.9920751162
 H         -0.0786831020        1.4886524485        3.5447559211
 O          5.3440075085       -2.1986599832        5.6093103583
 H          6.1065672699       -1.7792903876        5.1914564930
 H          4.6716911262       -1.5085658268        5.6960253987
 O         -3.3355216136        2.6531069724        2.0045858880
 H         -3.9425390187        2.3974592255        1.2821023203
 H         -3.8078338479        3.2631265528        2.6073973251
 O         -0.2848859092       -4.0362565146        0.8406867518
 H          0.5548574108       -3.6237615576        1.1402761742
 H         -0.6092482051       -4.5368300298        1.6210138488
 O         -3.7740035608       -1.2884782412        1.4431597741
 H         -4.4093187918       -1.0495230629        0.7404411691
 H         -4.3035395649       -1.7724938789        2.1194127471
 O          3.5505049678       -4.1201712770        4.8456912497
 H          3.8082672243       -4.3675427547        3.9457825389
 H          4.2290716722       -3.5136923141        5.1900565123
 O          2.0530678904       -3.6658130937       -0.8348272697
 H          1.4469113723       -3.1270897017       -1.3533779253
 H          2.6498850353       -3.0243182973       -0.3942316171
 O          1.2419122416        2.4262125705        1.0733139821
 H          0.3226120460        2.1436625830        0.8997026798
 H          1.1987341626        3.2189044798        1.6386965498
 O         -2.5321383839       -2.9301067749        3.7652812572
 H         -2.3701378687       -2.2492021429        4.4320419199
 H         -3.4920192071       -2.9881704426        3.6829096601
 O         -2.4205828255       -4.0500356525       -4.1770497308
 H         -2.5456855358       -3.2928382487       -3.5720279471
 H         -1.4729487705       -4.2444044507       -4.1402999752
 O          6.5166352447        4.0315754858        2.8558174138
 H          7.2747416399        4.4466546283        3.2655066175
 H          6.8288099255        3.1486219377        2.5267990568
 O          9.0987311980       -0.1089637911        2.1083114178
 H          8.5828240017        0.7133998468        1.9197378650
 H         10.0100602891        0.1479007216        2.2441422270
 O          3.7548670583        2.1175267562        1.9252000618
 H          2.8379387705        2.0253115290        1.6199607378
 H          4.0649457896        2.9759606659        1.5725856979
 O          6.1933462808       -3.1543412671        0.1215536937
 H          6.2279735550       -3.3086389751        1.0837274754
 H          6.9997501789       -2.6251587837       -0.0661336188
 O         -5.3655724740       -0.3110860695       -4.1736984704
 H         -5.5384128130       -1.2629447122       -4.0300395103
 H         -4.6264198294       -0.3080795173       -4.8135165877
 O         -3.7939466214        0.2630142139       -1.9660762591
 H         -4.4549059170        0.2458838356       -2.6815711068
 H         -3.0687626331        0.8363206164       -2.2973421958
 O         -2.2739506361        0.3970767437        2.7976234891
 H         -2.8428369506       -0.2633467494        2.3440354842
 H         -2.7836141101        1.2353807892        2.7847411245
 O          3.8532051706        2.7368295112       -4.0580160184
 H          4.1539841921        3.0202918825       -3.1809307699
 H          3.0297424129        3.2133738547       -4.2427186862
 O          4.0740399277       -1.4686664213        2.8075894424
 H          4.6468104192       -2.2261644726        3.0091741868
 H          3.7547242232       -1.1160354105        3.6598443765
 O          5.6506559176       -0.0155944658       -1.4933069793
 H          5.6195067173       -0.0841912403       -0.5159238849
 H          5.3927176396       -0.8896355409       -1.8516177519
 O         -2.5485239922        2.7764212232       -5.2505498470
 H         -2.0914746058        2.3229733803       -5.9708935252
 H         -2.1319445746        3.6637879118       -5.1370760579
 O         -2.5737778141       -2.9634088783       -6.6563969038
 H         -1.6239316348       -2.8822517803       -6.8139656656
 H         -2.6370691923       -3.4953587991       -5.8386798589
 O         -5.7652491413       -1.3643108522       -0.2947552751
 H         -6.2187854048       -0.8639010894       -1.0027551389
 H         -5.6764658802       -2.2833290825       -0.5931390626
 O          2.6423090289        2.1067554163        4.7380330569
 H          2.0363712557        1.8614609646        4.0104544862
 H          3.1508233673        2.8797908738        4.4432424569
 O          0.1383378539       -2.6575333353       -5.9925015384
 H          0.2673221281       -3.4174817333       -5.4064194269
 H          1.0173669005       -2.2866277212       -6.1611276585
 O          0.8963264453        1.2794584014       -2.5747982633
 H         -0.0298163700        1.5540256746       -2.7237643187
 H          1.3609252848        2.0400405853       -2.1956405449
 O         -3.2119745675       -2.3203054474       -2.2789824069
 H         -3.3605010195       -1.3667638057       -2.1067222828
 H         -3.0609140660       -2.7520700754       -1.4140587140
 O         -0.2820887173        5.3612117707        4.3566281068
 H         -1.0013502169        5.9060100917        4.0178109540
 H         -0.6775432839        4.5142555730        4.6169150777
 O         -1.1190595724       -1.2268750232       -4.0896098669
 H         -0.5955444160       -1.6487157852       -4.8017670038
 H         -2.0168791854       -1.1594789059       -4.4660785179
 O          6.1698412875       -3.2176116513        2.8490700570
 H          6.3713213810       -3.9184681992        3.4689184017
 H          6.6230526040       -2.4056406095        3.1726257839
 O         -5.4338190288       -2.9591876598       -3.5816710900
 H         -5.1468662184       -3.4892595707       -4.3261258944
 H         -4.6280505918       -2.8040734079       -3.0249530658
 O         -7.9811728942       -2.6047654730       -2.3527882288
 H         -8.0212186626       -2.9472251352       -1.4454621002
 H         -7.1512998634       -2.8993507345       -2.7550006966
 O          2.5221180310       -1.3261285647       -5.8758951640
 H          3.4797211751       -1.1909102788       -5.9149136709
 H          2.1295711400       -0.4600064941       -5.6568981374
 O          4.0736184151        4.3223303193        4.0095309665
 H          4.9321065954        4.1502886330        3.5680143206
 H          4.2269249973        5.0044339330        4.6634800528
 O          5.4890865170        1.3033758301        3.9407668110
 H          5.0945193524        1.4089119780        4.8062528285
 H          4.8204419037        1.5792082140        3.2914586224
 O         -4.3526250557        4.3850490752        3.7763260745
 H         -3.8106376047        5.1377218002        3.4611050181
 H         -5.2524252345        4.5015473129        3.4545617564
 O         -7.2366616810       -0.0996604001       -2.1706056390
 H         -7.7374421842       -0.9426719721       -2.2862089268
 H         -6.7437328089        0.0256334772       -2.9909945686
 O         -2.7381857576       -3.3478197386        0.1473952288
 H         -1.7930130319       -3.4559074753        0.3622018717
 H         -3.0760537847       -2.6157128880        0.7068725735
 O         -3.5383486175        5.2471233242       -2.6951046745
 H         -3.2664242234        4.3664121000       -2.3965701227
 H         -4.4973273532        5.2086200100       -2.7650922197
 O          3.5687552133       -4.7497319056        2.1383401639
 H          3.9393881012       -5.0217544622        1.2770182461
 H          2.8669836758       -5.3966297035        2.3523955671
 O          1.6994794517       -6.3263094835       -0.2345947687
 H          2.5793766262       -6.6858713974       -0.3639197594
 H          1.7835328012       -5.3645975932       -0.3873900002
 O         -7.9641871184       -3.3266771311        0.3554541185
 H         -8.0796409609       -2.5833834969        0.9539621817
 H         -7.5505317541       -4.0281766469        0.8689612291
 O          8.3528436760       -1.6230737558       -0.1157307643
 H          8.6348325262       -1.2044149825        0.7122928179
 H          8.5179066931       -0.9731350182       -0.8125211886
 O          7.4881069523        2.8179706763       -0.8291375598
 H          6.5957463411        2.8489726753       -1.1989880116
 H          7.9418355113        2.0880555727       -1.2901704106
 O         -0.4717125617        3.8439715847       -2.3942291349
 H         -1.2637591284        3.3495093927       -2.1188945582
 H         -0.3222806337        4.4768880677       -1.6632552299
 O         -1.0822113958        0.8936912487       -6.6493782696
 H         -0.2762100170        0.8524373949       -6.0818822396
 H         -0.8090291124        0.6232417201       -7.5255922901
 O          3.2205669126       -0.4652745320        5.1792452251
 H          3.1028354777        0.4980483752        5.0675728496
 H          2.3490784034       -0.8055706634        5.4112102286
 O          5.1095890774       -1.0222015573       -5.0017174863
 H          5.6742627437       -0.2378859775       -4.8583613501
 H          5.4134055193       -1.6933351967       -4.3772912629
 O          2.3876345210        5.5997758169        0.2739570272
 H          3.3479121112        5.4976582726        0.3077041419
 H          2.0934524988        5.3162045310        1.1632621005
 O         -5.3380571701       -4.0620912585       -0.9869062245
 H         -6.0558072207       -4.4517950382       -1.4887059939
 H         -4.5146432167       -4.5207611617       -1.2839160604
 O         -1.0861949439        2.6711933922        4.4237128297
 H         -2.0109384349        2.3981964103        4.5763023582
 H         -0.5976627792        2.4233788016        5.2419510616
 O          4.7836006228        4.3258302113        0.7516676978
 H          5.0351778422        3.8351632782       -0.0479071710
 H          5.5731084415        4.4308361631        1.2996630940
 O          4.4149921384       -5.1858925674       -0.4254856478
 H          5.1987837488       -4.6237107540       -0.3353437058
 H          3.7396747247       -4.6600684163       -0.8765812875
 O         -1.0718996819        3.8881267279        1.8716228504
 H         -0.7894504456        3.5974874499        2.7484631412
 H         -1.9092580710        3.3938307311        1.7169768006
 O          6.2171688225        1.2247168731       -4.0265541051
 H          5.6149732625        1.9029761239       -4.3542260881
 H          5.8856172009        0.9860252272       -3.1490273927
 O          2.6627483075       -2.8198117263       -3.5905480362
 H          2.6884893321       -2.3946582318       -4.4687605820
 H          2.0920809445       -2.2262585284       -3.0525640656
 O          3.8225240378       -1.9892232959        0.2005694647
 H          4.7192248450       -2.3712236806        0.0725480621
 H          3.7357726317       -1.8718065865        1.1624809787
 O         -1.3018512766       -5.2103560785        2.9984625504
 H         -1.7041396359       -4.4071889888        3.3863605207
 H         -2.0287022783       -5.6512737717        2.5278836516
 O          1.1769252983        0.9989931101       -5.2203200396
 H          1.3926544481        1.9356191731       -5.3335425449
 H          1.1513128783        0.8972319177       -4.2414207790
 O         -1.6694832672        1.2966701242       -3.2159641992
 H         -2.0134144012        1.8433853690       -3.9542280211
 H         -1.4413309803        0.4265042770       -3.5901579217
 O         -4.8304190078        2.4268343213       -3.7547957656
 H         -5.2731762001        1.6646712736       -4.1369698304
 H         -4.0916345939        2.6405170982       -4.3445186167
 O         -4.8605096112        1.3155250751        0.2771273244
 H         -4.4286255331        0.9454520494       -0.5179463176
 H         -5.7071223618        1.6861121204       -0.0419587320
 O         -2.6985235034        2.9547785869       -1.1111372470
 H         -3.4362550245        3.3137806281       -0.5854441149
 H         -2.1967631299        2.3867505585       -0.5098638559
 O         -4.7478286332        4.2360764731        0.2095400107
 H         -5.2840072349        4.2779256220       -0.6137824744
 H         -4.2083177607        5.0479293629        0.2261294629
 O         -2.9553481213        6.2560007633       -0.2055386911
 H         -3.2029087752        6.1848877385       -1.1439880543
 H         -2.0027002209        6.0650259747       -0.2046215867
 O         -3.2850796983       -5.4551223912       -1.9593402623
 H         -2.3654656280       -5.4795726255       -1.6392612141
 H         -3.1893412164       -5.1453018253       -2.8747956411
 O          2.1956040589        3.3067843512       -1.2076177630
 H          2.2109254981        4.2461847907       -0.9559387764
 H          1.8677217231        2.8536547917       -0.3951822738
 O         -3.1871547200       -0.6074247404       -5.6674527749
 H         -2.5846483994        0.0188525246       -6.0998222059
 H         -3.1054004625       -1.4559756549       -6.1658794129
 O          1.6469238608        4.5837940522        2.6648308223
 H          2.4912144538        4.5343868211        3.1381088321
 H          0.9869544934        4.9582626607        3.2870898819
 O         -5.4140611413        0.9253673287        2.9090870687
 H         -5.0283015159        0.8624412131        2.0134820765
 H         -5.8809332528        1.7845112954        2.8819909896
 O         -8.5916655467        1.4190931910        1.6025817414
 H         -8.1848303825        0.5337850422        1.7445131992
 H         -9.5187303743        1.3385079344        1.8233306159
 O          7.4224045502        1.8775538573        1.6321790576
 H          7.5295315590        2.2778791361        0.7343809658
 H          6.6852789256        1.2306887829        1.5346171582
 O         -7.1790780707       -0.8611838683        1.9581863848
 H         -6.5700556162       -0.2789184474        2.4606863185
 H         -6.7123031980       -1.0341789248        1.1100741687
 O          4.7243946114        2.6231668556       -1.4118692962
 H          4.8006295721        1.6580229746       -1.3362755714
 H          3.7606401955        2.8103859543       -1.2853051912
 O         -5.2790850655       -2.6946476644        3.1023135935
 H         -5.4776532041       -3.5131758351        2.5816978218
 H         -6.1058813026       -2.1989888193        3.1309253722
 O         -3.6902277146        1.9120687079        4.8815611436
 H         -4.2994548774        1.4193486014        4.3026899068
 H         -4.0078778757        2.8241812371        4.8550475821
 O         -6.4368798874        3.3487600965        2.2281158140
 H         -5.9429020098        3.6500596831        1.4409661499
 H         -7.2892233106        3.0217837001        1.9226548782
 O          1.3442389836       -6.2213506619        2.4779646741
 H          0.4473042586       -6.0308710779        2.7748887386
 H          1.2920547361       -6.4181549436        1.5255711016
 O         -0.3119854022        5.4112071449       -0.2346301646
 H          0.5729761343        5.7806389382       -0.1290369446
 H         -0.4613317493        4.8176560882        0.5240787464
 O          5.1011313182       -2.4096306701       -2.5969680372
 H          4.1869187005       -2.6483444288       -2.8834180083
 H          5.4665438216       -3.1431330976       -2.1008249163
 O         -0.9073392016        1.2826682433       -0.0000930131
 H         -0.3410339752        1.0284423739       -0.7358528402
 H         -0.9259632078        0.4758811047        0.5619326064
 O         -0.2111754574       -0.8927470640        1.3261394004
 H          0.5675771186       -1.4270224382        1.1471592276
 H          0.0405157066       -0.3159590796        2.0623485778
 O        -10.1541290453        0.2780491801       -0.3810934093
 H         -9.8045582323        0.9743743654       -0.9408751397
 H         -9.8043540468       -0.5507065234       -0.7144120298
