  147
       -244.15422157
 H          1.4467326391        0.7693128334        1.6766885034
 C          0.6530623109        0.4754711972        0.9866586137
 H          0.4464898351       -0.5842535911        1.1223391714
 C          1.1055906676        0.7562204795       -0.4367790072
 H          2.0683590649        0.2817309095       -0.5955407373
 H          1.2081245818        1.8289524231       -0.5875833583
 O         -0.5454225919        1.1517100389        1.3207051780
 H         -0.4180646887        2.1134627876        1.1431805804
 N          0.1524160801        0.2423504933       -1.4307678952
 H          0.5315442208        0.4535434895       -2.3865827859
 H         -0.7885287853        0.7092213257       -1.3341324115
 H          0.0266191410       -0.7826156768       -1.3265315814
 O         -2.3705746946        1.1006441713       -1.2532152824
 H         -2.6523564671        1.4375806832       -2.1435229140
 H         -2.8417495249        0.2601667800       -1.1468534730
 O          6.5119952431        0.5938175203        0.3793510384
 H          6.6441275202       -0.1505608096        0.9831420780
 H          5.6706876268        0.9914821864        0.6573228495
 O         -3.7151411495        3.1479764304       -0.1441612807
 H         -3.3000330060        3.5778006620        0.6232656155
 H         -3.1162540089        2.4234688205       -0.4160097549
 O          2.0646181566        5.2044572629       -0.1420307197
 H          1.8466101101        5.7247047384       -0.9179171155
 H          1.2232057097        4.8397864986        0.1915937171
 O          1.5345169116        0.7838680658       -3.6826080272
 H          2.4023276199        0.7062354437       -3.2317824860
 H          1.4470005526       -0.0124167332       -4.2312478156
 O         -2.1974231085       -3.5712917407       -1.1539933215
 H         -1.3442213882       -3.0714885599       -1.0310904236
 H         -2.2140579396       -3.7794739076       -2.0905167270
 O          2.3723305621        3.2413712439        2.0328778990
 H          1.4866640491        3.3689032956        1.6469579552
 H          2.7918775192        4.1037166819        2.0009666497
 O         -0.8431293579        0.9242212424        4.0415332850
 H          0.0514983432        1.1532184465        4.3442525292
 H         -0.7928485770        0.9747606526        3.0696250960
 O         -3.4506818764        1.7408950625       -3.5490552772
 H         -4.3817049674        1.7732345434       -3.2324573370
 H         -3.3721715636        0.8695227297       -3.9663896455
 O         -4.7021126239        0.6592682970        2.7705724749
 H         -3.9318824332        0.2567281859        2.3174603577
 H         -5.2642978159       -0.0871796694        3.0148608811
 O          2.0314181194       -4.1327791260       -1.2264372598
 H          2.5158861077       -3.4317428585       -1.7391474077
 H          1.9103510653       -4.8729094336       -1.8211800894
 O         -6.0128242571       -1.1504886157       -0.0058738520
 H         -6.0070558803       -0.1700108448        0.0940986771
 H         -6.0607135279       -1.4964972040        0.9028572711
 O         -3.0318122888        2.5862044814        3.8811950611
 H         -3.7436505789        1.9850057616        3.6091444398
 H         -2.2821415738        2.0206770896        4.1348440504
 O          4.0354584656        1.1374414720        1.4118449839
 H          4.0488717639        0.7234532885        2.2837361155
 H          3.4904533492        1.9391392112        1.4872606557
 O         -0.4848845236        3.2020071389       -1.6394258486
 H         -1.2896697811        3.6432576750       -2.0026656830
 H          0.2543994163        3.4277301968       -2.2390658049
 O          3.7563309366       -4.5637585320        0.9265317820
 H          3.1314143111       -4.5498062052        0.1831628077
 H          3.3643603229       -3.9868538238        1.6021617266
 O          6.2237800574       -1.3433574330        2.4191657186
 H          6.8868461744       -1.5037144133        3.0912611130
 H          5.4041558575       -1.0784733633        2.8769684455
 O          3.7315071966        0.6968161505       -2.1523191791
 H          4.6586792444        0.4766555069       -2.3371822491
 H          3.7432309595        1.5460985498       -1.6891593982
 O         -3.6296701925       -1.0139912369       -3.6887679929
 H         -3.6553775224       -1.0796058891       -2.7155344992
 H         -4.5230638343       -1.2306184565       -3.9681512236
 O         -2.6595891982       -0.5419289918        1.4693035851
 H         -2.9536254646       -0.8005887560        0.5739622391
 H         -1.9225940363        0.0777686664        1.3536469374
 O         -3.2882361847       -2.6830215510        2.9602324180
 H         -2.9579570129       -1.9126249426        2.4558663171
 H         -2.9387492554       -3.4599958888        2.4977148609
 O         -3.5767426410       -1.3141593356       -0.9386142915
 H         -3.1880494535       -2.2146115761       -0.9913035639
 H         -4.5147589783       -1.3761871667       -0.6299448264
 O          3.5274108201       -1.1947913665        0.0194302510
 H          4.3373677114       -1.7572117046       -0.0330632948
 H          3.8144569616       -0.3409098572        0.3792451412
 O         -0.9889029480       -1.7580556561        4.3252649882
 H         -0.9901594935       -0.7788184683        4.3374327209
 H         -1.9115780362       -2.0409425475        4.2845898579
 O          6.4121928708        0.1252611862       -2.2238255854
 H          7.1900095374        0.5046162961       -2.6330425139
 H          6.5103440558        0.2617680058       -1.2485733198
 O         -0.9660050657       -1.8789854157       -3.0914050891
 H         -0.2325590664       -1.8671446276       -3.7186206187
 H         -1.7449913760       -1.5553319136       -3.5583306683
 O          1.7278215011        3.5139660543       -3.1186059362
 H          2.5005687891        3.3862538439       -2.5502736113
 H          1.6228750167        2.6927498309       -3.6180962566
 O         -2.0398127694       -4.6153930698        1.3781040402
 H         -2.1651830969       -4.3315482019        0.4530468680
 H         -2.1686328308       -5.5637237567        1.4032332554
 O          1.4522607123       -1.7776738025       -4.5826663062
 H          2.0951551733       -1.9734932387       -3.8629604253
 H          1.7985375143       -2.1747775954       -5.3819053230
 O          3.1483123700       -2.1699272581       -2.5545734011
 H          4.1145254910       -2.3618035930       -2.7080630332
 H          3.1532052314       -1.4760960874       -1.8737756083
 O          0.0670514624       -2.4014528987       -0.5196106440
 H          0.7607673204       -3.0255425588       -0.8033072799
 H          0.0105100055       -2.4875434687        0.4518533656
 O         -2.4119665766        4.2575582657        1.9890419976
 H         -2.7361361719        5.1118062112        2.2754631839
 H         -2.6325161076        3.6199851601        2.7288867234
 O          5.7240602933       -2.5153520117       -2.6100418262
 H          6.0611370541       -1.6031875726       -2.6095187421
 H          5.8634314402       -2.8335511182       -1.7045152957
 O          1.8411933340        1.4387492875        4.1250846173
 H          2.0853485402        2.1811321047        3.5549415256
 H          2.5349725709        0.7719396627        4.0423625273
 O         -5.8857541147        1.3917649866       -2.5236445116
 H         -6.0508494256        1.5678911690       -1.5911551260
 H         -6.0922728443        0.4546255305       -2.6727834422
 O          5.5984987074       -2.8486155942        0.1279922387
 H          5.0487735219       -3.6199500654        0.4125288053
 H          6.0215351759       -2.5073366198        0.9266062762
 O          3.6803756102        3.2637779409       -1.0552555362
 H          4.5645018599        3.6320107311       -1.0753336872
 H          3.1091162304        3.9444693841       -0.6340237766
 O         -0.0572332118        3.7460218004        0.8069501466
 H         -0.8696725594        4.0799737450        1.2349564277
 H         -0.2902548000        3.5734788322       -0.1642853465
 O         -6.3982009691       -1.3446577664       -2.7194977128
 H         -6.4048176423       -1.4330872217       -1.7507461669
 H         -7.2851284769       -1.5442517849       -3.0210205308
 O         -5.8260848942       -1.9230278669        2.6334272060
 H         -4.9304501395       -2.2977225973        2.8068537675
 H         -6.4458268100       -2.4200915924        3.1669239639
 O          3.8195318008       -0.6139242910        3.6732982251
 H          3.2993887627       -1.3083115234        3.1725122714
 H          3.8532372675       -0.9173266814        4.5823544630
 O         -5.7603559104        1.4843664007        0.4028532606
 H         -5.5734826189        1.3434102885        1.3492746401
 H         -5.1060680071        2.1657322485        0.1417466312
 O         -2.7539387701        4.2567060238       -2.4788016780
 H         -3.0368998817        3.6356961927       -3.1608633009
 H         -3.3106713381        4.0674901316       -1.7030996198
 O          2.6181413734       -2.3871252569        2.2038496440
 H          1.6563346924       -2.5503284551        2.2401776886
 H          2.8132627888       -1.9668818638        1.3307592115
 O         -0.0458307777       -2.7761618439        2.1263628430
 H         -0.5552236323       -3.5951489116        2.0566793548
 H         -0.3634634730       -2.3487445632        2.9702992350
