  131
       -218.46399869
 H          1.4805458080       -0.1548994089       -1.0569747902
 C          0.4011838041       -0.2269079761       -1.2014851901
 H          0.1908727348       -0.6804002645       -2.1701390565
 C         -0.2040685859        1.1711157036       -1.1335407060
 H          0.3622632673        1.8276551359       -1.7896538625
 H         -0.1262583361        1.5461851122       -0.1102728999
 N         -1.6100238759        1.2120353310       -1.5170261240
 H         -1.7027194385        1.0512316857       -2.5156205789
 H         -2.0950011807        0.4609310311       -1.0376128405
 O         -0.1655884839       -1.0946543636       -0.2327850532
 H         -0.0170758160       -0.6966140074        0.6405864700
 O          1.6514281531        2.5624432385        1.3660322778
 H          2.5756339510        2.5450384443        1.6463862250
 H          1.6351494904        3.1213017750        0.5653690491
 O          6.8034896058        0.9117698958        0.4168697482
 H          7.7503133461        0.7976626782        0.4999302011
 H          6.6097361224        1.0617662291       -0.5269151888
 O          3.3806707127        1.7921815734       -1.2442690108
 H          3.0280694144        1.4107463038       -2.0900290912
 H          2.9772640877        2.6720630574       -1.1778230724
 O         -1.8537240212        0.5345570597       -4.4627025696
 H         -2.7874439664        0.8387042823       -4.4673963750
 H         -1.8761774202       -0.3748276454       -4.1122637995
 O          3.0075795583       -1.7865650962       -0.0047531473
 H          2.5114266665       -1.1961107148        0.6023205319
 H          2.8489324994       -2.6970745873        0.3046954714
 O         -4.4082832528        1.1848152304       -4.0265231487
 H         -4.4572731208        1.9523362996       -3.4338113036
 H         -4.6749348278        0.4119349795       -3.5021875028
 O          4.3503782018        1.8103246302        1.3471589202
 H          3.9900997885        1.6339680685        0.4612228531
 H          5.2959132319        1.6317096261        1.2671884380
 O          4.8886607950       -1.7676784305        3.2497543062
 H          4.2337803686       -2.4862363942        3.3634027180
 H          5.2538407819       -1.8665214944        2.3540388591
 O         -0.1311151359        3.2563711293        3.3162457748
 H          0.0109399601        2.5668035611        3.9747537704
 H          0.5469363303        3.0983363860        2.6334662093
 O          5.5582325044       -1.5910000978       -2.3371678613
 H          5.7074987357       -1.8698442507       -1.4203404291
 H          5.7014356196       -0.6322067672       -2.3381249063
 O          2.3810976144       -4.3450852870        0.7010722494
 H          2.8846778694       -5.0133500143        0.2363039278
 H          1.5168383065       -4.2564796553        0.2371943278
 O          2.8680334883       -1.7497168976       -2.7436064431
 H          2.7967658946       -1.7564865916       -1.7698271582
 H          3.8322947154       -1.8220204864       -2.8805151741
 O          5.8349504537        1.2222423596       -2.1009101160
 H          5.9131030435        1.6037892149       -2.9757219167
 H          4.9326830154        1.4607406880       -1.7765135382
 O         -2.0428563448       -1.8818267106       -3.1869288660
 H         -2.5858224995       -2.5214765097       -3.6504500847
 H         -1.1291170482       -2.2522110233       -3.2058912665
 O          2.5898585280        0.8362127515       -3.5386906448
 H          2.5673930221       -0.1312172766       -3.3921244203
 H          1.7011267444        1.1411519382       -3.7764842191
 O         -2.9323839459       -0.9610863698        3.6205180584
 H         -2.2134699906       -0.4709254422        3.1647569181
 H         -2.6114510978       -1.8735955509        3.6363695460
 O          0.1977242514        2.1848556223       -4.1819200043
 H         -0.5651133595        1.5733796416       -4.3068046135
 H          0.3689274554        2.5692994653       -5.0425055956
 O          0.4012693640       -2.9807383633       -3.2659659231
 H          0.3790516768       -3.4623861770       -2.4205779697
 H          1.2759274580       -2.5612882597       -3.2911366769
 O         -4.5806462067       -0.9295361273       -2.1584302972
 H         -4.6819222413       -0.2292751379       -1.4895490305
 H         -3.6342624189       -1.1088068344       -2.2504538732
 O         -2.3478288938       -3.2740678131        0.1006155556
 H         -2.1918233714       -2.3309185889       -0.0808639401
 H         -3.2998204009       -3.4061102516       -0.1216263849
 O          5.6311495392       -1.6450045939        0.5304030880
 H          4.6740264284       -1.5960758463        0.3243391039
 H          5.9616275547       -0.7352424301        0.5793494343
 O         -0.1890868100        4.3382784505       -2.3639509836
 H         -0.1651148517        3.6132970397       -3.0093890176
 H         -0.9630696159        4.1819222297       -1.7851053651
 O         -2.2800491309        3.6206675224       -0.7365062102
 H         -2.0654207705        2.6821216987       -1.0323343288
 H         -3.1231935178        3.8095470570       -1.1675422666
 O         -4.2054985694        1.6330561986        3.4663868390
 H         -3.7830736237        0.8221539726        3.7765081932
 H         -3.5495405348        2.0984980566        2.9128916491
 O          1.9201169869        4.1099461729       -0.8496058336
 H          1.1179465203        4.1979436739       -1.4399315423
 H          2.2200139568        5.0032985772       -0.6814280749
 O         -2.2883325836        2.7104198933        1.8398647741
 H         -2.3034853701        3.1535527729        0.9666714377
 H         -1.6057263480        3.1585269025        2.3833813692
 O         -2.9326342757       -0.5845994204        0.4034750231
 H         -3.6552177739       -1.0035972037        0.9209815561
 H         -2.2268307370       -0.3661076645        1.0266212801
 O          0.5048361257       -2.0116383419        3.4207761576
 H         -0.2959702860       -2.4899945325        3.1519774009
 H          0.7740882685       -1.4634560274        2.6678904499
 O         -6.2377253819        0.9591367374        1.9851011647
 H         -7.0546572093        1.3099867505        2.3373898648
 H         -5.5062993118        1.2766016585        2.5873659610
 O          0.7047590661        0.6458553453        4.3014964677
 H          1.6649059909        0.7324357852        4.1935937934
 H          0.5678974230       -0.2936643343        4.4891126168
 O         -1.0602079865        0.3749615501        2.2080391441
 H         -1.4657737155        1.2540415353        2.0357465102
 H         -0.3704954925        0.5251857914        2.8858187956
 O         -4.9657117567       -1.4749734297        1.8973834014
 H         -5.5931198501       -0.7350107914        1.9296005790
 H         -4.3885460831       -1.3741869990        2.6805567630
 O          1.6838495975       -0.1802522927        1.6458708846
 H          2.3419948740       -0.0911930255        2.3839145233
 H          1.5340114590        0.7439309527        1.3806342864
 O          2.8241744142       -3.5242711030        3.3613038685
 H          2.6951006731       -3.9196690992        2.4891052211
 H          2.0141274408       -3.0192154938        3.5484528848
 O          3.4156025866        0.3870457723        3.5115541645
 H          3.8813730722        1.0098923632        2.9300933019
 H          4.0041949186       -0.4115873252        3.5539997079
 O         -4.9359551879       -3.0992548172       -0.4356041322
 H         -5.1911245900       -2.6671736973        0.3906767360
 H         -4.9707827805       -2.4115290155       -1.1252766920
 O         -1.8188900255       -3.3343617044        2.7019623875
 H         -1.8658396177       -4.2467046670        2.9858297872
 H         -2.0346292592       -3.3293008687        1.7350111471
 O         -4.8357842109        1.1527256775       -0.3328148878
 H         -3.9957247931        0.8068199530        0.0250571209
 H         -5.4621619374        1.1414335538        0.4113118579
 O         -4.7049236789        3.1777313426       -2.0563964131
 H         -5.5659917078        3.5902483579       -2.1245083589
 H         -4.7836210926        2.4585140698       -1.3905901955
 O          0.1902001607       -3.7296260837       -0.6400401478
 H          0.2204993620       -2.7582148334       -0.5019402278
 H         -0.7339533016       -3.9436482968       -0.4338722541
