  84
       -142.48628525
 O          3.1544391371        0.5627022703        3.2373444670
 H          3.5443246471        1.2785060426        2.6733052287
 H          3.5283669536        0.6887830050        4.1113133110
 O          0.8214790947       -2.5702091446       -3.0386679211
 H          0.4619490696       -1.6753906256       -3.2145503166
 H          0.3160360000       -2.9390594118       -2.2956654142
 O         -1.8446349342        1.0107883071        2.7046048602
 H         -1.6570341393        0.0674435933        2.5156357301
 H         -1.0122148672        1.3786754393        3.0503677956
 O         -4.9991121075       -2.4051267021        0.2741346228
 H         -5.7064260580       -3.0472840866        0.2006208682
 H         -4.7203343676       -2.3924983633        1.2192918309
 O         -2.6442829606       -0.3538945586       -2.8903423218
 H         -3.2139673463       -0.8468786027       -3.4812481147
 H         -2.5114003043       -0.9062141295       -2.0849234871
 O         -4.1467808009       -2.1148460339        2.7848723061
 H         -4.4551075099       -2.5102371287        3.6007780204
 H         -4.3249006451       -1.1278007853        2.8608636584
 O          3.0787707751       -1.6272954478       -2.2394467129
 H          3.7079535339       -1.6978836758       -2.9583105395
 H          2.2405729554       -2.0850269856       -2.5564617056
 O         -1.6029468798       -1.5680268554        1.9065232221
 H         -1.7708858075       -1.4906484112        0.9452832078
 H         -2.4283189515       -1.9110214527        2.2897344708
 O          4.4426323455       -1.9862698299        0.1508130599
 H          3.8444284289       -2.0845960326        0.9084202496
 H          3.9057041547       -2.0548742007       -0.6540792886
 O          0.3722704086       -3.4487363325        1.6031587115
 H          1.2244318586       -3.0671891201        1.8491229886
 H         -0.3046091624       -2.8045240666        1.8842249149
 O          0.1283896306        0.0449868927       -3.0491938842
 H         -0.7594014570        0.1903445745       -3.3923726464
 H         -0.0056228529       -0.1065902858       -2.0892514655
 O          6.1451200589       -0.0759231575       -0.5912653682
 H          5.5672522660       -0.8117314223       -0.2886969428
 H          6.9792236287       -0.1772966113       -0.1320294722
 O         -0.5092906601       -3.7461102277       -0.8775417018
 H         -0.1019684060       -3.6524647075        0.0213181506
 H         -0.5826806920       -4.6878424408       -1.0389814123
 O          4.7547659825        2.1155383135       -0.9014213697
 H          5.2417511425        2.7339024856       -1.4475332826
 H          5.3320086091        1.3163932707       -0.7937588358
 O         -2.4643977689       -1.8771227692       -0.6973938128
 H         -3.3258929208       -2.2651253653       -0.4853323000
 H         -1.8170754554       -2.5967315339       -0.8307827625
 O         -1.6442889639        3.6557495889       -2.6867947740
 H         -2.0644222275        4.2077065932       -3.3463422604
 H         -2.3459402355        3.1378027720       -2.2677429525
 O          3.9674040412        2.5803249385        1.7328737780
 H          3.1871089868        3.1370423328        1.5819367441
 H          4.3667581451        2.4571336969        0.8578660923
 O         -5.2706545020        0.3438058201        0.0734684622
 H         -5.1571525713       -0.6252521632        0.0347654162
 H         -6.2084616411        0.5213676592       -0.0163137372
 O         -3.4451430109        1.7974418143       -1.4608920455
 H         -4.1619719942        1.4150650850       -0.9312849717
 H         -3.1635946886        1.0845648293       -2.0689073900
 O          0.5521356455        2.8223833900       -1.2929173937
 H         -0.1549325532        2.4646434258       -0.7168755631
 H          0.0499826605        3.2644926067       -1.9926081647
 O         -1.3853215632        1.8170922962        0.2379383530
 H         -2.1932443009        1.8653052246       -0.3160078894
 H         -1.6606415927        1.6709797205        1.1712339077
 O         -4.5149516213        0.4502820940        2.7691797627
 H         -4.7533916386        0.6291622864        1.8452626692
 H         -3.6332095325        0.8374502400        2.9033665512
 O          1.5644832361        3.8039858015        1.0295907833
 H          1.3353900311        4.7209988489        1.1852179752
 H          1.2500491757        3.5833636006        0.1263454784
 O          0.6850697450        1.9002404619        3.0047028003
 H          1.4901135585        1.3880166239        3.1703325191
 H          0.9332107674        2.6363701748        2.4291800325
 O          2.8119733480       -2.0519265293        2.4193535040
 H          3.2354725971       -2.6066194558        3.0779618815
 H          2.8940368587       -1.1314603849        2.7365550387
 O         -0.1657005848       -0.5026850202       -0.4761358668
 H          0.7795632448       -0.3485570005       -0.2621023900
 H         -0.6118121311        0.3020323671       -0.1589394907
 O          2.5456933353        1.4124643163       -3.6702185493
 H          2.9092719408        1.6570190268       -2.8161206877
 H          1.7072441634        0.9644462071       -3.4803952746
 O          2.3374671944        0.3573536827       -0.3262960701
 H          2.7453073829       -0.1518598149       -1.0418990141
 H          2.1966487268        1.2501956866       -0.6546353883
