  87
       -142.30398385
 H         -0.0845711602        1.4427462000        2.4740527645
 C          0.5864360059        0.5918981300        2.3173485712
 H          1.1457960584        0.4059148845        3.2342905004
 C          1.5717951845        0.9068019880        1.1953825375
 H          2.3156118616        0.1151421906        1.1242264679
 H          2.0627144949        1.8489922498        1.4274591772
 O         -0.1728712414       -0.5760960627        2.0657567279
 H         -0.7641518035       -0.4115249469        1.2961266418
 N          0.8670703081        1.0046481237       -0.0974035221
 H          0.0345759222        1.6254331497       -0.0022236150
 H          0.6190463826        0.0402505051       -0.4186566162
 H          1.5023219720        1.3866253894       -0.8514560653
 O          3.6359245148       -0.6387891089        3.4640427711
 H          3.8065542109        0.3058286143        3.2791738025
 H          4.2856534999       -0.9176864973        4.1105727794
 O         -1.5080109033       -4.0201813950        0.2506840858
 H         -1.6103704187       -3.4682079613       -0.5444548673
 H         -1.6599771445       -4.9264474017       -0.0233309341
 O         -3.2609417412       -2.9730924682        2.0860354564
 H         -2.6113568459       -3.3420623453        1.4573210950
 H         -3.3924204479       -3.6265223001        2.7748400752
 O         -4.6315716136        0.6095706091       -2.1739182517
 H         -4.6720100994        0.5853285917       -1.1909193485
 H         -5.4433170576        1.0189625135       -2.4752058659
 O         -1.2161402904        2.7719592965        0.2045254203
 H         -1.6650456094        2.7087658109       -0.6483307061
 H         -1.8752928100        2.5442472472        0.8945632583
 O         -4.4727371309        0.3588264169        0.4722802361
 H         -4.9534700518       -0.5029154197        0.6531110472
 H         -4.6202519798        0.9551048689        1.2094871971
 O          2.8557428858       -1.6891379340       -2.7732870860
 H          2.1942813270       -1.7757846509       -2.0605022802
 H          3.6325314138       -1.2943116902       -2.3559262790
 O         -5.4646725803       -2.0037158016        0.6924038717
 H         -4.7995086588       -2.4661968791        1.2247602328
 H         -5.2999064902       -2.2609362928       -0.2370305289
 O          2.5073845865        1.6133158008       -2.0883186444
 H          2.1568538244        1.2326518349       -2.9113056232
 H          3.2178893320        0.9989151150       -1.7799712508
 O          3.4713458318       -1.7056802263        0.9810092236
 H          3.6216666761       -1.4158037540        1.9018097446
 H          2.8605059407       -2.4462371625        1.0388591294
 O          0.8195116175       -1.5570158791       -0.9692828401
 H          0.0109155697       -1.9149346611       -1.3689102956
 H          0.9897008992       -2.1056754548       -0.1669747733
 O          1.6008869959        0.0769530321       -4.1777462109
 H          1.9523641439        0.1286749132       -5.0675319985
 H          2.1041231125       -0.6617423139       -3.7158013192
 O         -4.5578269705       -2.2300639154       -1.8587230389
 H         -3.6049468991       -2.3956018191       -1.9012091183
 H         -4.6835762083       -1.3250638277       -2.1775310233
 O          5.2818714601        2.1510261291        0.3315857323
 H          4.6278824135        2.8050656258       -0.0398695748
 H          6.1507348662        2.5250852753        0.1795631300
 O          0.9107638488       -2.9642365239        1.2618087099
 H          0.6227510136       -2.2220782437        1.8222720085
 H          0.1302859808       -3.5158175295        1.1121613815
 O          1.1671727562        4.0783682495        0.8440976236
 H          1.0702238984        4.9751048558        1.1662083960
 H          0.2811737040        3.7714189463        0.5952744013
 O          3.4731987972        3.7624973593       -0.6716866373
 H          2.7120915043        3.9317564048       -0.0920745241
 H          3.1339182539        3.2250950371       -1.4022918599
 O         -1.9157284179       -0.1608781280       -0.0114386643
 H         -1.8733267575        0.5154450876       -0.7278203866
 H         -2.8278243066       -0.0552348262        0.3414018464
 O         -2.0500177295        1.4577304763       -2.1098636425
 H         -3.0016662240        1.3057725818       -2.2647423298
 H         -1.5967869896        0.9252906691       -2.7867273757
 O         -0.9954180580       -0.4395266057       -3.7898673594
 H         -0.0333632810       -0.2668374335       -3.9171232301
 H         -1.3765869380       -0.5217888886       -4.6654902537
 O         -2.7154662993       -0.4275048040        3.1396131969
 H         -3.1032924889       -1.2395995584        2.7800665655
 H         -1.7599467208       -0.5812032704        3.1337910482
 O         -1.7532983850       -2.1315639319       -1.7440757506
 H         -1.5781474411       -1.6573447954       -2.5757583251
 H         -1.8987277755       -1.4247979520       -1.0618794093
 O         -2.9355113016        2.0487960664        2.1688101293
 H         -3.0624023373        2.6326778011        2.9170053842
 H         -2.8686469329        1.1367582037        2.5380082216
 O          4.1713658962        1.9396555778        2.8032721757
 H          4.6232167127        2.5730090828        3.3621343064
 H          4.6108800965        1.9690712718        1.9297687302
 O          4.2855357455       -0.0426731633       -1.0092416842
 H          4.8216008728        0.6261614549       -0.5500592692
 H          4.0292466324       -0.6809411415       -0.3161621669
