  90
       -152.71899608
 O         -1.7406724790        0.6110575913        0.4817275585
 H         -2.1146948740       -0.0838600956        1.0622340874
 H         -2.4017025737        1.3194395787        0.4787375513
 O          1.2300742646        1.5454708782       -4.2998882192
 H          1.6403787534        1.8885357738       -5.0934237407
 H          1.9720526148        1.3694916595       -3.6607117739
 O         -0.4349738596        0.7535083532        3.3136501256
 H         -0.0978063190        0.3748108608        2.4764292101
 H         -1.0568094261        1.4567226197        3.0592263728
 O         -2.9689752980       -1.2966595219        1.9195923556
 H         -3.5497807420       -1.6037309105        1.1951819845
 H         -2.3129731248       -1.9977628386        2.0284752157
 O          3.2166586990        0.9773513516       -2.6730755340
 H          3.0188649293        0.0332826140       -2.5367055179
 H          3.2027595807        1.3619853879       -1.7843183186
 O          0.9717630287       -0.2575974596        1.2506859421
 H          1.6993015736        0.3340698882        1.0033706131
 H          0.4561204278       -0.4069354482        0.4222879008
 O          2.1307422779        1.4067501003        3.9066169893
 H          2.6161027832        0.5818676178        3.7307842120
 H          1.1820396964        1.1765844892        3.8376800821
 O          1.8285340566       -2.5729593147        2.1263769179
 H          1.4772016487       -1.6978231216        1.8199796851
 H          2.4591540438       -2.3345124029        2.8166201104
 O         -1.9848058446        4.3775117346       -0.9314414987
 H         -1.6079005296        3.9356449560       -1.7064732057
 H         -1.2559286074        4.5558657594       -0.3264996785
 O          0.2211455815        2.0502973853       -0.5576387458
 H         -0.4271455868        1.4084461336       -0.1939047092
 H         -0.1156397778        2.3022519442       -1.4467079741
 O         -4.3841608558        0.6538574528       -1.1938211681
 H         -5.2481898220        0.8630777454       -1.5483510307
 H         -4.1702193847        1.3550084708       -0.5474259954
 O         -0.0725158534       -0.8212969195       -1.1029439373
 H          0.7565415107       -1.0479983936       -1.5690186678
 H         -0.5281626641       -1.6563117850       -0.8597842476
 O         -2.0319378057        0.3198943496       -2.5590128073
 H         -1.4066665877       -0.0150023947       -1.8801431774
 H         -2.8912825811        0.4056959743       -2.1147296898
 O         -3.5602186009        2.6876447736        0.4430032504
 H         -3.1000471197        3.3543748921       -0.1135749303
 H         -3.2337393138        2.8420732631        1.3439554064
 O          2.7236293929        1.5284545632        0.0216914074
 H          2.8733811383        2.2020139913        0.7095598155
 H          1.8145655595        1.7223301454       -0.3105737719
 O          2.7734121819       -3.2982840079       -0.2590844345
 H          2.4590789679       -3.1087709732        0.6547337464
 H          2.1334601024       -3.9259741868       -0.6217285815
 O         -1.5251158449       -1.5090984546        4.3983048727
 H         -1.0664579297       -0.6900380023        4.1251296963
 H         -2.4405878462       -1.3734556438        4.1365987687
 O          0.6413723978       -4.4954640719       -1.7215090430
 H          0.6573099936       -3.9394533084       -2.5266945463
 H          0.4844843562       -5.3949896795       -2.0092379942
 O          0.0985685705        3.9969175745        1.2054241319
 H          0.9566022967        3.9318379357        1.6530915842
 H          0.1440900321        3.2838613563        0.5227060196
 O          3.6609721937       -0.8435484354        3.2941758753
 H          4.4802103396       -0.8431456134        3.7884986002
 H          3.9097156484       -0.7724944227        2.3412640282
 O          2.3035027494       -1.5267555117       -2.1662243687
 H          1.9885465442       -2.0570959927       -2.9139374630
 H          2.5750500303       -2.1667243799       -1.4690509725
 O          4.2161595810       -0.7339081731        0.6872425148
 H          3.9230364618       -1.5214730576        0.2180485028
 H          3.7582752422        0.0274024021        0.2965241160
 O         -0.8261897433       -3.1920087009        2.3956637410
 H         -1.0400672369       -2.7342837841        3.2373005143
 H          0.1434856727       -3.1515420081        2.3467104469
 O         -3.9860378336       -2.0714047508       -0.4433573248
 H         -3.1011157850       -2.3950738744       -0.6610241815
 H         -4.0691706024       -1.1786274102       -0.8078454734
 O         -0.3971746076       -0.7045253779       -4.4963444585
 H         -1.1235277891       -0.4536432789       -3.9007756562
 H          0.2184554066        0.0492624504       -4.4669059593
 O         -1.2702754290       -3.0583678465       -0.3140600768
 H         -1.1698389467       -3.1575339158        0.6521941076
 H         -0.6827415994       -3.7158120524       -0.7166018282
 O          0.8134083979       -2.9469114184       -3.9684679073
 H          0.2849053690       -2.1126973149       -4.1349398133
 H          0.9776182802       -3.3227301807       -4.8332327989
 O         -0.8443635473        2.6708600938       -2.8950149694
 H         -1.4164417982        1.8684600122       -2.8757324744
 H         -0.1228424641        2.4424943773       -3.5042248788
 O         -1.8987504583        3.0240953053        2.6432046056
 H         -1.1574236870        3.4288166244        2.1207170102
 H         -2.0219826986        3.5772011663        3.4140435294
 O          2.6191905160        3.2432498761        2.1340067737
 H          3.3007920825        3.8025087391        2.5048492952
 H          2.4214961210        2.5495104453        2.8300698334
