  219
       -371.63461189
 O          0.4540746672        1.2560483726       -4.4991105158
 H          0.0250877203        0.5596832294       -5.0639071986
 H          1.3991475077        1.2008248543       -4.6721935807
 O         -5.1892297681       -3.7691475153        3.2220536452
 H         -4.6589066559       -3.3992316685        3.9471192359
 H         -4.5581748253       -4.2323408837        2.6520561999
 O         -2.8615849052       -1.0369251359       -4.2068647890
 H         -2.7476055806       -0.8180047634       -3.2556400898
 H         -3.3666028413       -1.8494043693       -4.2452733062
 O         -1.0076619662        4.2734708609        2.8798536763
 H         -1.8840571747        4.1030088155        2.4706700888
 H         -1.0912316640        5.0878227783        3.3766342361
 O          0.6519268663        3.9722662703        0.7004727220
 H          0.1236087469        4.2259811735        1.4748345366
 H          0.3308298333        3.0745532026        0.4669921730
 O          5.3726455918        1.9827571480        1.8147955742
 H          5.3231715266        1.8064519930        2.7623771681
 H          4.6289950364        2.5717878913        1.6075490682
 O         -2.6991630707        4.7047202084       -0.9274030704
 H         -2.6589799419        5.5572360533       -1.3591990070
 H         -1.9027446415        4.1817717695       -1.2228424860
 O          3.0243604075       -5.2655848867        1.2376503168
 H          3.4280730539       -4.6641213958        1.8755221955
 H          3.4118216079       -5.0524884033        0.3736173766
 O         -0.8550191789       -2.1255911549       -0.2229437166
 H         -1.7993496812       -2.2100705657       -0.0565265441
 H         -0.7455818174       -2.2377773240       -1.1803381365
 O          4.6835878575        1.4297163137        4.5101617212
 H          5.2199509018        1.6468786394        5.2730064054
 H          4.0627544685        2.2100572922        4.3766076546
 O         -0.8955299808       -3.2561693270        2.3938124275
 H         -1.7371851704       -3.7201931480        2.2001202803
 H         -0.8177817109       -3.1761136919        3.3605828009
 O         -8.2892595313        0.2825666395       -1.3319263625
 H         -7.4958875151       -0.0833204576       -1.7815826815
 H         -9.0593221667       -0.0220159433       -1.8108167305
 O         -0.7493157345       -2.5530151704        5.0481667924
 H         -1.6988398050       -2.7304794320        5.1665347333
 H         -0.6881813877       -1.5796843697        5.0663314078
 O          2.3672445156        2.2524175318       -1.7893441860
 H          1.8669787804        2.8933378183       -2.3218993749
 H          3.2751148513        2.6439620652       -1.7167646143
 O         -3.1501155436       -4.3026773321        1.4069955895
 H         -2.8164597759       -4.9293098895        0.7448367539
 H         -3.3779870792       -3.4917399775        0.9074837550
 O          1.2599279894       -4.2337605583       -1.4847334147
 H          0.9020880232       -4.5413912674       -0.6252715052
 H          2.1601456172       -4.5864970291       -1.5436588467
 O          0.3760493225       -5.1343331377        0.8709309388
 H          0.0445840372       -4.4299952252        1.4607734731
 H          1.3075435982       -5.3028317914        1.1292054478
 O          1.5944259702       -2.4055119394        1.1335214993
 H          0.7056400284       -2.4705022845        0.7548561845
 H          1.5032935305       -2.5365666409        2.0882286723
 O          1.7466323298       -2.5391761693        3.8997373323
 H          1.9315651105       -1.6105086265        4.1433256087
 H          0.9830187730       -2.7967163675        4.4334189998
 O         -3.7582006237        0.3202149666        5.6821742601
 H         -4.1259641237        0.5157623726        4.7906790658
 H         -4.3267388385        0.7449720878        6.3236666206
 O         -3.6928535803       -2.0415045327       -0.0033765051
 H         -4.3769540266       -1.7203826788        0.6449514809
 H         -4.2005963059       -2.4156769812       -0.7485426456
 O         -4.9082708627       -3.0785092332       -2.1805715247
 H         -5.5600837971       -3.7763529703       -2.1138580732
 H         -4.0615862326       -3.5123877841       -2.4808526834
 O          4.0868984295        5.6344599757       -0.3545770250
 H          3.1621014192        5.8265874617       -0.6632931521
 H          4.5659660236        6.4622566303       -0.3682719268
 O          7.6166228817       -1.7722701146       -2.6344968933
 H          7.2190639259       -2.3881530379       -1.9705246730
 H          8.2350565807       -2.2827170104       -3.1555909267
 O         -3.2868382775        3.8537494671        1.5446342470
 H         -4.2726927534        3.9094312103        1.6043368143
 H         -3.0703815975        4.2736927498        0.6895260183
 O          5.0973758070       -0.0221525786        0.0309501061
 H          5.4585630313        0.5292518705        0.7465097648
 H          5.0045337470       -0.9438661607        0.3459379781
 O         -2.2844818187       -0.9493222034        2.5203465850
 H         -1.6961346384       -1.6479395449        2.1764881351
 H         -2.4856935918       -0.3209657637        1.8129499571
 O          7.4006859017       -1.5977500681        1.4730373635
 H          8.1522418947       -1.6437550364        2.0637620143
 H          6.6328656934       -1.3040190097        2.0032667502
 O          3.2401870679        3.7131990690        1.3842629914
 H          3.7030454192        4.4210789314        0.9055160174
 H          2.3033567300        3.8018929241        1.1031691167
 O         -5.4849694457       -1.5532007981        1.8194761746
 H         -5.5143957290       -2.3836309910        2.3545541858
 H         -5.1580087379       -0.8457016250        2.4040391157
 O         -2.5878667071       -0.1917952139       -1.6887343788
 H         -2.9763612196        0.6977036965       -1.6002099733
 H         -3.0010754287       -0.7525163449       -1.0069364113
 O          5.3820012945       -0.2276926019       -2.6853401147
 H          5.3762494187       -0.0149916417       -1.7350825510
 H          6.2754835214       -0.5428997169       -2.8790535128
 O          4.2335059748       -2.4983714115        0.5936238530
 H          4.4731499179       -2.8140067816        1.4701619950
 H          3.2577045625       -2.4831553692        0.5868943693
 O          6.5776245251       -3.2236154837       -0.6636737182
 H          7.0062268848       -2.7861304286        0.0863811965
 H          5.6272994107       -3.1256687351       -0.4917202654
 O          4.1211363502       -3.4948941462        3.2809746135
 H          4.4285436499       -4.1244827536        3.9336767935
 H          3.2123390400       -3.2218199832        3.5501408471
 O         -7.8330751896       -0.2321207280        1.3684345762
 H         -7.0268858241       -0.7837512977        1.3966657180
 H         -8.0154844513       -0.0561313504        0.4326902296
 O          3.9717469242       -4.7350383070       -1.3755784636
 H          4.6885674626       -5.3240126953       -1.6093926879
 H          4.0835295173       -3.9277977576       -1.9349891857
 O          0.0552560229        0.2366057051       -2.0421431249
 H          0.1804235838        0.6972963596       -2.8974378647
 H         -0.8863077293       -0.0109666231       -1.9909967909
 O         -0.6129766720       -0.7490761840       -5.7705504809
 H         -1.4100000243       -0.9767343667       -5.2602893097
 H          0.0719954669       -1.3942021454       -5.5564688821
 O         -3.4240237929       -2.2484901605        4.6662199442
 H         -3.1665385575       -1.8137574097        3.8322954801
 H         -3.6759877454       -1.5236357604        5.2550641410
 O         -1.8386441464       -5.7210936238       -0.5549463599
 H         -1.8832906207       -6.6680732031       -0.6895437282
 H         -0.9887072666       -5.5477195151       -0.0996155983
 O         -6.8637383712        2.6163417868       -0.9070735698
 H         -6.6380322802        2.7118879514       -1.8426593266
 H         -7.6110528973        1.9999483371       -0.8963389408
 O          2.2969389421        0.0061033569        4.4861926744
 H          1.6442046532        0.7124719824        4.4282861406
 H          3.1557831055        0.4347505556        4.6106031471
 O          1.4274532027        4.2734668990       -3.3419018068
 H          0.6999278949        4.3185711706       -3.9714346502
 H          2.2474501047        4.0802392439       -3.8598971449
 O         -5.2209454538        0.5756034431       -0.0070027208
 H         -5.7520676741        1.3758848031       -0.1528921392
 H         -4.3274685130        0.8730220107        0.2316052662
 O         -5.9021182353       -0.4900114094       -2.3184377971
 H         -5.5391611061       -0.1659516009       -1.4556888911
 H         -5.5986974814       -1.4034139078       -2.4092921546
 O         -0.4022012852       -2.7099448793       -2.9154615322
 H          0.1362275204       -3.4388783933       -2.5587052942
 H          0.2060476458       -2.2402841588       -3.5167377955
 O          1.8997524426       -1.6147600445       -1.4769181189
 H          1.1614008822       -1.0826923769       -1.8357925703
 H          1.5752193178       -2.5248484927       -1.3267001484
 O          3.9618788755       -2.5479731983       -2.8833783799
 H          3.2311154037       -2.1520613368       -2.3646900226
 H          4.6428498803       -1.8529674406       -2.8877304050
 O         -2.6458212838       -4.1950686228       -2.7754448288
 H         -1.8945645203       -3.6018737481       -2.9621186861
 H         -2.3610766386       -4.7534545147       -2.0341729960
 O         -2.8021518727        1.3212416630        1.0127232003
 H         -2.9877478799        2.2658515525        1.2277703156
 H         -1.9259998710        1.3542598538        0.5860648132
 O          1.5765099463        5.8544223875       -1.1093818456
 H          1.5323231310        5.4190295151       -1.9787036295
 H          1.1529305649        5.2578640794       -0.4700832427
 O         -0.7937358932        3.2042407488       -1.8420682070
 H          0.0754566777        3.5781776772       -1.6843846702
 H         -0.9424705569        3.2693206440       -2.8160054101
 O         -3.7209799678        2.2457315122       -1.7349080244
 H         -4.5941329865        2.2853994275       -2.1673242320
 H         -3.5013681932        3.1375986444       -1.4342967676
 O         -7.0627701058        1.7663594451        2.8092548032
 H         -7.7353672258        1.8891653447        3.4784944580
 H         -7.4019872879        1.0322614500        2.2090371183
 O          3.0004433918        3.3403102840        4.0644518877
 H          3.1007973646        3.6076887168        3.1297089869
 H          2.0922823324        3.0115714409        4.1600910557
 O          8.0896706075        0.1299364581       -0.6558117991
 H          8.0665541876       -0.4370805362       -1.4400129854
 H          7.8346222668       -0.4349876992        0.0880287333
 O         -5.9087036700        3.8132343426        1.4183551709
 H         -6.2449571360        3.6275936035        0.5298685920
 H         -6.3585283708        3.1709000666        1.9929825409
 O          6.8268305308        2.5282298561       -0.5428250102
 H          6.5267080572        2.4712704479        0.3721610968
 H          7.3423800033        1.7148309301       -0.6997061619
 O          3.6742752189        3.3434928631       -4.3780029428
 H          4.2673400398        3.4680296365       -3.6167970685
 H          3.5872367316        2.3843167530       -4.4775683103
 O         -3.2486166033        1.7760696420       -4.4439653205
 H         -3.1588786464        1.8676265851       -3.4796885619
 H         -3.0927450849        0.8417534508       -4.6377637484
 O         -1.0549497216        3.4298329482       -4.4760371562
 H         -0.4626179099        2.6703224259       -4.6544501342
 H         -1.9365054436        3.0968510927       -4.7076422582
 O          3.0614076279        0.6109969434       -3.8066868356
 H          2.7425184950        1.0794721576       -3.0048342660
 H          3.9474995676        0.2899498499       -3.5650395741
 O          4.7107884716        3.4002607826       -1.8314485975
 H          4.5985742974        4.2470062151       -1.3680850040
 H          5.5327046432        3.0073796100       -1.4508858320
 O          5.2181652207       -0.9152162835        2.9184642862
 H          4.7966568318       -1.7199857133        3.2494431280
 H          5.0331364857       -0.2011776017        3.5385764269
 O          1.6587645792       -1.6982725514       -4.3926928018
 H          2.0930116372       -0.8420221152       -4.2050277375
 H          2.3601932454       -2.3485064270       -4.2704668245
 O         -1.1956348826        0.1649522435        4.6959842063
 H         -1.9678211011        0.3204891391        5.2602880428
 H         -1.5704283425       -0.1672795609        3.8500336106
 O         -4.6569530051        0.6812649376        3.1980447001
 H         -5.5113671561        1.1489840227        3.0820226015
 H         -4.0581944927        1.0053606637        2.5141239432
 O         -5.8317361731        2.0117193928       -3.4138182695
 H         -5.1889042308        2.0790355572       -4.1354396716
 H         -5.9354092017        1.0593873657       -3.2383604651
 O          0.4635994619        2.2140087744        4.0766045967
 H         -0.0637964704        2.9232235016        3.6766647097
 H         -0.1780312681        1.5660202780        4.4259506341
 O         -0.2316524051        1.5184162063        0.3134151698
 H         -0.0945820507        1.2294870660       -0.6114176769
 H          0.5311363203        1.0894436095        0.7748146332
 O          2.0161907299        0.3963258853        1.1173784015
 H          2.6636876651        0.7034839233        0.4751619050
 H          1.9264082655       -0.5564966624        0.9577130261
 O          5.2186262694       -1.4412553148       -5.4827760493
 H          5.3842644487       -0.5876248837       -5.0750999166
 H          4.7837202200       -1.9785917432       -4.8130926343
