  219
       -371.62987277
 O          1.6855877282       -2.8350090888        5.0977061463
 H          1.6882257457       -3.7936537559        5.0787860291
 H          0.8561437845       -2.5545666530        5.5319445041
 O          2.1325489592        5.8042125568        0.0480612886
 H          2.4471883962        5.4790884870       -0.8097862734
 H          1.1723300162        5.6645888321        0.0702802735
 O         -0.1823540773        2.1537969757        2.1559348057
 H         -1.0302668997        2.5410235290        2.4454579359
 H          0.4993192722        2.5596063784        2.7227548008
 O         -3.1362118460       -2.4418232685       -1.0302283027
 H         -2.5776213093       -3.1652083272       -1.3486469132
 H         -3.2300767113       -1.7889098038       -1.7392648541
 O         -2.4311531389       -3.0462236523       -3.9521952518
 H         -2.1452093843       -3.8824307614       -3.5739629799
 H         -3.3997334195       -3.0184655013       -3.8883696917
 O         -6.2916987941       -2.3922464733       -0.9576074398
 H         -5.8343220919       -3.0767073189       -0.4557414394
 H         -5.9355419440       -2.4361898477       -1.8557866575
 O          1.7006869253       -5.0173950969        2.5122162896
 H          2.5802874729       -4.6448236268        2.6759541149
 H          1.1103483026       -4.2437950201        2.5254717104
 O          3.7976245775       -1.2224699597        4.4259372155
 H          3.0925801231       -0.7449630760        3.9182010052
 H          3.2949725666       -1.7787180391        5.0341063373
 O         -2.2186248634       -4.2734508376        1.2033616055
 H         -1.4547547563       -3.8744220675        0.7388762482
 H         -2.1620315880       -3.9681875461        2.1180409699
 O         -0.8174014142        2.5573632475        5.1458550044
 H         -0.0007864783        3.0047364676        4.8761927358
 H         -1.5228192956        2.9143484779        4.5849731801
 O          1.5671479417        3.3146570808        3.8681885781
 H          2.0317852054        3.9871416575        3.3523438617
 H          2.2809908204        2.7663718026        4.2434069509
 O         -1.1593441756       -1.4194485316       -5.8079028771
 H         -0.2331894299       -1.6097398598       -5.5613657442
 H         -1.6646506065       -2.1662813271       -5.4655672038
 O          7.7896550350        1.8237114973        0.0194935885
 H          8.6368666573        2.0326818666       -0.3739151823
 H          7.9637911047        1.2861716335        0.8203606282
 O          1.8907505918        0.0016326518        3.0929920997
 H          1.0386172402        0.1198969353        3.5484964072
 H          2.0823464993        0.8254764766        2.6121832835
 O         -2.6669308597        5.6978576558        1.7759939403
 H         -3.3941421576        5.4802843656        1.1336039822
 H         -2.8573852859        6.5682370056        2.1247949086
 O          0.0882062380       -3.4111944390        0.0004951833
 H          0.6195819124       -4.2358113826       -0.0969141902
 H          0.4573843529       -2.9771416274        0.7867260840
 O          2.9125674897        4.5787421164       -2.3349985396
 H          3.5400255823        4.6062708819       -3.0796602639
 H          2.0377849180        4.4235959507       -2.7378021739
 O          0.4501161963        2.7687242140       -0.5056072765
 H          0.0846362490        3.5589897068       -0.0562174956
 H         -0.2937606512        2.1537663165       -0.6368118174
 O          2.3825013832        1.9747189367        1.2414605648
 H          1.7088627705        2.2392414480        0.5852864995
 H          2.7620211674        2.8258244668        1.5553913418
 O          0.4060089394        3.7861144489       -2.9419811634
 H         -0.3657887772        4.3724051104       -2.9337625262
 H          0.4815700040        3.4469486662       -2.0154751588
 O         -3.3582146259        3.1194919253       -1.5478821466
 H         -4.0359420911        2.8291391110       -2.2038548185
 H         -2.7796039294        2.3553603213       -1.3899599236
 O         -4.4040526963       -1.7539713728        1.1609048342
 H         -3.8616341474       -2.0748298094        0.4044430466
 H         -4.8736783455       -2.5241936602        1.4878799767
 O          3.8383996280       -2.9181261381       -3.2539267147
 H          3.0234376696       -2.6149549766       -2.8051993129
 H          3.5640103759       -3.2164045181       -4.1235816778
 O         -0.6005686270        0.1119178090        4.2304251275
 H         -0.6739221548        1.0140836115        4.6398010121
 H         -1.4261899720       -0.0118890042        3.7340213997
 O         -1.8726762739       -4.8436990426       -1.7641030914
 H         -0.9576035220       -4.9320807391       -2.1295071890
 H         -1.8162372875       -5.1597579142       -0.8581703920
 O          1.2987617651       -1.9093416270       -4.7382926515
 H          1.7546155332       -1.0755515068       -4.9352785464
 H          1.2252483473       -1.9655189522       -3.7714727609
 O          3.6216180303        2.2129597627       -1.3500541624
 H          3.3099423806        3.1021940236       -1.6400731311
 H          4.2101196489        2.3810758907       -0.5938956122
 O         -5.1728447906       -3.0037198821       -3.5134218196
 H         -4.9929181796       -3.8450155165       -2.9964880276
 H         -5.7732384610       -3.2456951534       -4.2188946377
 O          2.5097908361       -2.1072288037        0.7435251182
 H          2.8490485625       -2.5162081564        1.5658369219
 H          2.8893350650       -2.6665320172        0.0401642944
 O          2.2819328036        0.6211759281       -5.2077779989
 H          3.0723233687        0.9408304378       -4.6914330463
 H          2.4017557254        0.9167251584       -6.1096849543
 O          5.3266712337        2.7695560881        0.7864887745
 H          6.2214371736        2.6560504328        0.4359959885
 H          5.2659279587        2.1947236434        1.5552843852
 O          6.0033712064       -3.8415570625        1.1112617913
 H          6.6141986257       -3.0841456432        0.8932623490
 H          6.5567023250       -4.6190101064        1.1857097716
 O         -2.4557043263        3.2778239466        2.9862849947
 H         -3.1641737167        2.8512340796        2.4769964296
 H         -2.4682636127        4.2067511644        2.6980811852
 O         -5.2277309958        2.1722010585       -3.1532506614
 H         -6.0579209341        2.1560661474       -2.6542374062
 H         -4.9364569148        1.2573327817       -3.2567261001
 O         -1.8642792463        5.1598964515       -2.2834651561
 H         -2.4561802018        4.3971332696       -2.0597959534
 H         -2.4329604610        5.8615221840       -2.5994072480
 O          6.1213420048       -0.1532643305       -0.9648395339
 H          6.6431070939        0.6475912163       -0.8045189991
 H          5.2947954286       -0.0568936544       -0.4447582526
 O          0.2243878877        1.2375388878       -3.6220621177
 H          0.8980500316        1.0430107350       -4.3031710268
 H          0.2460145930        2.2116709689       -3.5008563718
 O          7.9187293549        0.3017732712        2.2564402057
 H          6.9696935355        0.3515417552        2.5374462767
 H          8.4501556587        0.4901309823        3.0300560922
 O          1.6361623688        0.3949132217       -1.4655324290
 H          1.0798211022        0.7440806670       -2.1929620328
 H          2.3772979831        1.0264133272       -1.3633148489
 O          3.2740355780        4.3751043140        1.9318863756
 H          2.8461207221        4.9804024355        1.2741671157
 H          4.1917199370        4.2970018814        1.6546014271
 O          4.5558121488        4.0789310002       -4.4330908865
 H          5.4506870410        4.3310348877       -4.6591070103
 H          4.5496142767        3.1078597243       -4.3334832752
 O         -4.3793647637        2.2295686210        1.3494976518
 H         -4.4920997467        1.5442308340        0.6710228960
 H         -5.1569073687        2.8125556934        1.2321517149
 O         -6.7378814102        3.4036619222        0.8705967130
 H         -6.9695634238        3.0206187144        0.0018088936
 H         -7.1571539559        2.8102716119        1.5123623775
 O         -4.0092623005       -0.4705167019       -2.8424699563
 H         -3.3392741767       -0.0617192161       -3.4622134018
 H         -4.4821467212       -1.1427614971       -3.3431065249
 O         -4.5675998757       -5.1058459089       -2.1193800506
 H         -4.7644164480       -4.9191282781       -1.1831215669
 H         -3.6005296654       -5.1933119439       -2.1513711216
 O         -1.9553900515       -2.9500391728        3.7171536167
 H         -2.4415782524       -2.1069283680        3.5800593438
 H         -1.6775839615       -2.9251580461        4.6424353540
 O         -2.3431378968        0.6074379474       -4.5172528080
 H         -1.9959273849       -0.0733971591       -5.1335962712
 H         -1.5539686610        1.0475599966       -4.1674854103
 O          7.5732430495       -1.8637200216        0.5017796512
 H          7.8445898319       -1.2448742918        1.1930697940
 H          7.0737914425       -1.3236524205       -0.1479326632
 O          0.6098622961       -5.0010744201       -2.6402845398
 H          1.0934974241       -5.3977490031       -1.9013867007
 H          0.9875434420       -4.1267277515       -2.7809283743
 O          5.3539392704        0.4229916155        2.8724758640
 H          4.8601351538        0.2011789069        2.0313046476
 H          5.0915927774       -0.2659472648        3.4990156572
 O          3.6874437349        1.8127413737        4.6666662182
 H          4.3072838234        1.5264352217        3.9788672616
 H          3.5792537347        1.0640288627        5.2565304346
 O          0.4577365642       -2.5376879938        2.6086806051
 H         -0.4271162442       -2.6725140072        3.0056707648
 H          1.0502014046       -2.3315025290        3.3483575305
 O          4.3389162643        1.4300177878       -3.8270404985
 H          4.8993673706        0.6126389174       -3.8100577319
 H          4.1231468429        1.6278469546       -2.8918705699
 O          4.0318864241        0.0165356048        0.6801453560
 H          3.4289032657        0.7919864544        0.7537585097
 H          3.4417985640       -0.7770975737        0.6815248011
 O          1.5419556907       -2.2215562021       -2.0122071424
 H          1.6516002199       -1.2791977429       -1.7728651586
 H          0.9529768489       -2.5917564110       -1.3251588470
 O         -0.6909726922       -1.8763296728        5.9468081879
 H         -0.8811095199       -1.5401290212        6.8222837975
 H         -0.6488103179       -1.0844756790        5.3435545489
 O         -0.9788596881       -1.1074745538       -2.6065786664
 H         -0.4797074288       -0.5829611648       -3.2416688326
 H         -1.4716719408       -1.7645000595       -3.1253370366
 O         -8.1411520443       -0.6439796113        0.0060804008
 H         -8.9175405957       -1.2008368135        0.0703079361
 H         -7.4292020128       -1.2173860973       -0.3401186241
 O          5.6376137918       -0.8248304855       -3.5527511636
 H          5.0453681402       -1.5934571098       -3.5059774934
 H          5.9410009004       -0.6721641585       -2.6410765631
 O          3.9438939623       -3.9077162418       -0.6800780790
 H          4.7409712046       -3.9180598557       -0.1193134645
 H          4.2110801765       -3.7024560532       -1.5866669997
 O         -4.7936346542       -4.4892819802        0.5509096921
 H         -3.8259363754       -4.3817227774        0.7292319705
 H         -5.0704821285       -5.2681564828        1.0343782451
 O         -5.1309523234        0.3007244203       -0.4740628868
 H         -5.1893553786       -0.4951725876        0.0813415340
 H         -4.7402091535        0.0231859220       -1.3219760011
 O         -3.0526428324       -0.5862493898        3.1486530054
 H         -3.7424048983       -0.0472030598        3.5833706785
 H         -3.5139584556       -0.9309932458        2.3578507835
 O          3.8501819066       -3.3217704301        2.7139754251
 H          4.0031784653       -2.6146495993        3.3690802696
 H          4.6851239154       -3.5002742187        2.2510126269
 O          1.7731469613       -5.4512280531       -0.1400050599
 H          2.6250094438       -5.0214440611       -0.3408404737
 H          1.7614947561       -5.5554269519        0.8356111824
 O         -7.2133786523        1.7564283275       -1.2409175134
 H         -8.0008051963        1.2164942690       -1.1361899053
 H         -6.4806321997        1.1976960635       -0.8942050308
 O         -4.5178166809        5.0418885383        0.0320823355
 H         -5.3769778340        4.7381828837        0.3473817181
 H         -4.1391998896        4.3058085823       -0.4833810582
 O         -5.1962570766        0.9377260990        3.5967377319
 H         -4.8585555074        1.4894117032        2.8644266845
 H         -6.1162083230        0.7775203184        3.3612203365
 O         -0.5678628318        5.1338577278        0.1246181528
 H         -1.2218392506        5.3561321534        0.8094141827
 H         -1.0128634064        5.2828262742       -0.7300089441
 O         -7.6819040481        1.0603104783        2.1334397914
 H         -7.7643678571        0.4592251629        1.3686964754
 H         -8.5339275080        1.0703107984        2.5703226026
 O         -0.8262719604       -0.2919599915        1.1650564313
 H         -0.0616563235       -0.7941771642        0.8739308771
 H         -0.4672755921        0.4714169781        1.6519501229
 O         -1.6457628162        1.1219652147       -0.9011181825
 H         -1.4502064105        0.4383492478       -1.5585514850
 H         -1.4959239135        0.6424707279       -0.0454363970
 O         -7.0684338134       -2.6022659465        2.3436385622
 H         -6.6060698632       -3.2027660241        2.9296691557
 H         -6.5824772553       -1.7717310085        2.3409653083
