  86
       -142.08550341
 H         -0.7737029965       -1.3121871395       -2.8235478384
 C         -1.0984393198       -1.3307017845       -1.7781167986
 H         -1.9458548508       -2.0132654224       -1.6826982308
 C         -1.5002901184        0.0812260075       -1.3461919185
 H         -2.2513975674        0.4496186990       -2.0396851096
 H         -0.6228722267        0.7263870866       -1.3969086411
 N         -2.0338947165        0.1636418975        0.0064273381
 H         -2.9285585739       -0.3095474949        0.0505210200
 H         -1.4103763228       -0.3092794427        0.6508658223
 O         -0.0699360537       -1.8521963651       -0.9539546492
 H          0.6954166911       -1.2297008720       -0.9869204891
 O          1.1974636140       -3.8970630978        1.9383846478
 H          1.3035405222       -4.2579421353        1.0336211976
 H          1.8306808283       -3.1632294105        1.9848027941
 O          6.1814145415       -1.9824830109       -0.6446847463
 H          6.5301580987       -2.3771360298        0.1564344199
 H          6.1670391198       -1.0191438437       -0.4926798887
 O          6.0212630700        0.6803549829       -0.0438770493
 H          6.7100554790        1.2971858156       -0.2907803687
 H          5.1557201660        1.1071835482       -0.2887126029
 O          1.3441029314        1.6099355303       -3.2098123442
 H          1.1135002802        1.9003524467       -2.2915226002
 H          1.9273166812        2.2837153367       -3.5620406143
 O         -5.0427049672        1.8728164789        0.6812688449
 H         -5.0303488239        1.1460906165        1.3262767518
 H         -4.1981297768        2.3502970751        0.8353524235
 O         -4.7483577470        1.0513718176       -1.7619453542
 H         -4.8592184525        1.3752164165       -0.8175623583
 H         -5.5424634822        1.3272784816       -2.2214919485
 O         -2.4965275247        2.5944787777        1.1013185726
 H         -2.4463074540        2.3585876586        2.0501113437
 H         -2.2730985362        1.7549003601        0.6261569064
 O         -1.0399076331       -2.6274347194        1.4744473053
 H         -0.7688389801       -2.3767460273        0.5696695867
 H         -0.3080043615       -3.2332696518        1.7672004947
 O         -1.2396144334        3.9658410460       -0.8476303339
 H         -1.7334689977        3.6956770676       -0.0516036361
 H         -1.8178426287        3.6960710714       -1.5947353875
 O          0.7930674350        2.4154574782       -0.7263388778
 H         -0.0086881619        3.0341297552       -0.7760850237
 H          1.5505316754        2.9643994500       -0.5090599169
 O          3.6701968544        1.7880335941       -0.4270083787
 H          3.5008030116        1.9804332039        0.5080475495
 H          3.0617428451        1.0576107953       -0.6685604959
 O          2.1327521468       -0.2916959717       -1.3269614578
 H          2.7228467092       -1.0851638089       -1.3186970508
 H          2.0295152231        0.0122099997       -2.2367367900
 O         -2.5289300099        1.3405670362        3.4756221549
 H         -3.3454473597        0.8614473880        3.2584503015
 H         -1.8209489581        0.6840716800        3.3929327018
 O          3.5297197562       -2.4620599373       -0.8567727305
 H          3.3161227072       -2.2818094409        0.0878089928
 H          4.5017362477       -2.3981194663       -0.9210426849
 O         -2.8379899812        2.9341453906       -2.7647978232
 H         -3.4799859275        2.3203154521       -2.3764100837
 H         -2.2788756345        2.3959786490       -3.3500454120
 O          4.8523877127       -0.0887278314        2.3808296378
 H          5.4047077461        0.1037263147        1.6079546371
 H          4.3453009720        0.7222899053        2.5389091886
 O         -3.8118546344       -2.3521790476        1.3505866990
 H         -3.9906423245       -2.2238869317        0.4041073134
 H         -2.8693457600       -2.5723210568        1.4345682353
 O         -4.3861049383       -1.6092119131       -1.2704737049
 H         -4.4909917827       -0.6601462367       -1.4945374477
 H         -5.0806765646       -2.0781594388       -1.7329087485
 O          1.4186601179       -4.2614855899       -0.7457606217
 H          2.2714090378       -3.8366905625       -0.9268553282
 H          0.7552812180       -3.5989816279       -0.9819064762
 O         -1.1552688604        1.3719476279       -4.3286762803
 H         -0.2624305036        1.4007852771       -3.9361733516
 H         -1.0633515840        1.6361619902       -5.2449386289
 O         -0.5642391306       -0.5835366908        3.0236526523
 H         -0.8148917227       -1.3864401728        2.4869516976
 H         -0.0908875105       -0.9174752380        3.7865746722
 O          2.7996836926       -1.6285161375        1.5791266722
 H          3.5886663789       -1.1933226163        1.9674927688
 H          2.1870013120       -0.9025775345        1.3696048443
 O          1.1505079590        0.5894307052        1.3200088349
 H          0.8171939804        1.1084693117        0.5655104901
 H          0.4068772739        0.3288443051        1.8961390217
 O         -4.6792724396       -0.1652572076        2.5430609636
 H         -5.3864624295       -0.4383680683        3.1274286815
 H         -4.3332419146       -0.9937248378        2.1227291164
 O          3.0832206361        2.0738012853        2.2959011188
 H          2.7656286216        2.7241595904        2.9218644289
 H          2.3094759375        1.5084683611        2.0470175037
