  144
       -244.31865961
 O          1.2401086949       -4.1720132970        0.0862929537
 H          0.3304397763       -4.5038495632        0.0192218041
 H          1.2802228373       -3.6641259353        0.9184819076
 O          4.2803750261       -0.1597558359        2.3869989133
 H          3.8364607930       -0.5053706681        3.1897148770
 H          3.6227418547        0.3895716330        1.9081435211
 O          6.4804964683       -2.1173910258       -0.4895806438
 H          6.5677625401       -1.1969890777       -0.1935240855
 H          5.7400852511       -2.4728980638        0.0252650788
 O         -3.0475342720       -0.0552887720        3.1936325813
 H         -3.5152143815        0.6535962600        2.6957511476
 H         -3.6849177186       -0.7849521715        3.2717846648
 O         -0.7576853210        0.5476537219       -4.0330952934
 H          0.0223926320        0.0395939447       -4.3004878079
 H         -0.4129153708        1.4007078418       -3.7148587704
 O         -2.2909753431        3.3816934736       -2.0899667365
 H         -1.3845962118        3.1682404010       -2.3789747855
 H         -2.1762909414        4.0920174318       -1.4382563783
 O          6.1657043282       -2.7028888184       -3.0390684184
 H          6.9748358799       -3.1303160899       -3.3201793260
 H          6.2973787743       -2.4583636717       -2.0862491220
 O          1.3171601476       -2.5209419679        2.2430105889
 H          0.4293969119       -2.4901091021        2.6442054465
 H          1.3253208571       -1.7661991346        1.6194140264
 O          6.4315425782        0.3465285886        0.8293651131
 H          5.7145056877        0.1380570308        1.4624442795
 H          7.2148128304        0.5188375729        1.3529363651
 O          0.2422204287        2.8387205648       -2.9204242688
 H          0.6864893916        3.6176598384       -3.2602281561
 H          0.9417772547        2.3172667344       -2.4736940922
 O         -1.7607366764        1.0302434111        5.2763267002
 H         -2.3867487221        1.2171619187        5.9757834735
 H         -2.2701453918        0.6460206836        4.5257568737
 O         -6.6824547930        1.8045196151       -0.7540543357
 H         -7.4966529263        2.0472087331       -1.1955076346
 H         -6.8701636862        1.7751204945        0.2062739352
 O         -4.7055510126       -0.5669136146       -3.4546290435
 H         -5.0684502425       -0.9120651880       -4.2706616633
 H         -4.3405583830        0.3269236612       -3.6655806283
 O         -2.8432918986       -3.2918274780        1.3424179354
 H         -2.9333204028       -2.4705172527        0.8068935017
 H         -2.3978028273       -3.9366490526        0.7614511216
 O          4.1537740506       -2.3920988648        0.9433824356
 H          4.2357218949       -1.6343315794        1.5680845343
 H          3.4447045563       -2.9466612626        1.2760009745
 O         -6.9839737543        1.3463537651        1.8981697457
 H         -6.9104371716        0.3499203563        1.8493532451
 H         -7.7252728051        1.5359054348        2.4734648040
 O         -0.9912065034       -3.5121782873       -2.6201096917
 H         -1.4684709948       -2.6623045438       -2.6125277008
 H         -0.0434514889       -3.2908244133       -2.5940572091
 O         -3.3718858558        1.6387299249       -4.0822763249
 H         -2.5120885636        1.2711531115       -4.3296997916
 H         -3.1809383542        2.3728092951       -3.4845283233
 O         -1.4505459828        4.9849054741       -0.0387114782
 H         -0.5456889384        4.5726515619       -0.0941149532
 H         -1.3202784362        5.9298822645        0.0406166572
 O          3.8126755290       -4.1048653496       -3.0654913546
 H          4.0075296950       -4.9083665432       -2.5817729656
 H          4.6421519740       -3.5899801616       -3.1034172523
 O          2.8743333849       -1.4610265033        4.2275434711
 H          2.3724576913       -1.9793980942        3.5696976086
 H          2.2278153291       -1.1920137960        4.8873312153
 O         -2.2284480388       -1.0946400037       -2.4631224201
 H         -3.1196835895       -1.0566197608       -2.8554579201
 H         -1.6786346721       -0.4896430052       -3.0011689718
 O         -2.0342400813        3.2579163345        1.9581414833
 H         -1.9435776519        3.9471471625        1.2727733427
 H         -2.9766462683        3.0356260028        2.0402602498
 O          0.8694881879        3.7898002736       -0.0462120371
 H          1.2880404602        3.8319971209        0.8243872069
 H          1.5894647201        3.8957900706       -0.7078429269
 O          2.7860679832        1.4414836254        0.8255459044
 H          2.4913232023        2.1535218483        1.4099344288
 H          3.5366146123        1.7955757435        0.2923280689
 O          0.2419342040       -0.9078169850        5.1494933607
 H         -0.4076457933       -0.2499766904        5.4404580676
 H         -0.2603214215       -1.6401277259        4.7686286083
 O         -6.6853209825       -1.2315000984        1.6489737481
 H         -5.9873910303       -1.6276348212        2.1976391281
 H         -6.3911247128       -1.3201718161        0.7294401840
 O          1.6522068651       -2.8269496513       -2.1476726233
 H          2.3691171515       -3.3420959415       -2.5755973808
 H          1.5114441684       -3.2887685460       -1.2808674811
 O         -3.0994862182       -0.9590463386        0.0919433941
 H         -2.7082453209       -0.9964518982       -0.8033072489
 H         -4.0443858874       -0.7744260490       -0.0840989568
 O         -0.1902214612        2.8689398687        3.9142785893
 H         -0.6615598221        2.3508670286        4.5869676521
 H         -0.8706968810        3.1314096570        3.2680558389
 O          3.4291164901       -0.9758799174       -1.2413007504
 H          3.8139847283       -1.4065694586       -0.4561453423
 H          2.7024052440       -1.5754216381       -1.5026526305
 O          2.8950854070        3.8929724253       -1.7929744910
 H          3.7322613341        3.9936926529       -1.3326195534
 H          2.9199840951        2.9837480288       -2.1426678413
 O         -1.2233902240       -2.1654401548        3.1538260557
 H         -1.7401192606       -2.7464131306        2.5593321330
 H         -1.6954187356       -1.3198171651        3.1323216900
 O          1.7272033749       -0.7409989676       -4.0461632610
 H          2.6614987884       -0.7964823831       -4.3062431847
 H          1.5786246606       -1.5165225798       -3.4836743772
 O         -4.2975994278        1.8517721066        1.8309036157
 H         -5.2577430321        1.7841529090        1.9530560730
 H         -4.1392378945        1.7252564757        0.8626541262
 O          2.0292318493        3.5849752776        2.4817785777
 H          1.2971399964        3.3955785283        3.0941091575
 H          2.7119516481        4.0268944431        2.9874667693
 O          4.9329476012        2.2881795480       -0.4808408307
 H          5.5698262785        1.6710122969       -0.0864404079
 H          4.9741968524        2.1285370754       -1.4438457450
 O          4.4501535068       -0.6633152237       -3.6715718154
 H          5.1582236323       -1.3136149103       -3.7736238721
 H          4.1507365503       -0.7881809511       -2.7402691440
 O         -4.6152599343       -2.3312370868        3.1180116685
 H         -4.8395826990       -2.9526508822        3.8114583391
 H         -4.0506114356       -2.8146102864        2.4796660466
 O         -1.4213462900       -4.8030260889       -0.3965452963
 H         -1.3172124249       -4.3273593472       -1.2702672424
 H         -1.6371980845       -5.7102570019       -0.6123321072
 O         -3.8675433860        1.6635955859       -0.7658695546
 H         -3.2899845343        2.2961518824       -1.2357864707
 H         -4.7645029390        1.8366296952       -1.0724077086
 O          0.6603460446        0.4908779116        2.8539862507
 H          0.6388984334       -0.1209734547        3.6128052188
 H          0.5457306207        1.3770371045        3.2339861340
 O         -5.6225276952       -0.7461204670       -0.8465173254
 H         -6.0195698628        0.1417623606       -0.8318219654
 H         -5.3662727230       -0.8806362548       -1.7724963575
 O          5.0022104230        1.9246761492       -3.1692089495
 H          5.7028802747        2.2361992225       -3.7407938568
 H          4.8050291555        1.0006729399       -3.4347488963
 O          2.2687699382        1.2665488044       -2.2523752991
 H          2.1497024956        0.6856190418       -3.0248829484
 H          2.7472018286        0.7166989660       -1.6092397404
 O          1.1394073445       -0.7607228681        0.3172942467
 H          1.7042800205       -0.0048223510        0.5266338244
 H          0.2778472767       -0.3309851798        0.1614692294
 O         -0.9521287188        0.9531591474       -0.1017923145
 H         -0.7818499304        1.6353202292        0.5524590058
 H         -1.8017071746        0.5577846194        0.1259651082
 O          5.0100637033        2.6948619861        2.7124580298
 H          4.7504617961        1.7808468643        2.8836892947
 H          4.9301370060        2.8210525036        1.7622905837
