  189
       -320.70320838
 O          5.7009514076        0.0552602375        2.8059791230
 H          5.9442456442        0.2869477856        3.7026358786
 H          5.1023097145       -0.7162756784        2.8652047046
 O         -2.5194453594       -0.7616433190       -1.2810690063
 H         -1.8694088993       -0.3074805442       -1.8427935002
 H         -3.3270005689       -0.8371237374       -1.8309997240
 O         -0.7511562677        1.7267082661        2.1638514298
 H         -1.0892702865        1.5934628060        3.0692148259
 H         -0.5964225017        2.6823104370        2.1029109099
 O         -1.6515530647       -1.1260766320        2.6780642363
 H         -1.1538930327       -0.7890490266        1.9041945363
 H         -1.7791523906       -2.0869059319        2.5109907607
 O         -4.0809929237       -1.5728892504        0.9711834024
 H         -4.2061959899       -2.0950512017        1.7770734233
 H         -3.6813446465       -0.7239611338        1.2050030259
 O         -7.6605061497       -2.1205069476        1.3174874340
 H         -8.5633634888       -2.2203433387        1.6195909459
 H         -7.1589330552       -1.6976901930        2.0406341138
 O          3.1716801021        4.7745360640       -2.0994370070
 H          3.8310190325        5.3014229448       -2.5508036275
 H          3.5814583900        3.9006732941       -1.9344660746
 O          5.2030554038        1.9177482555        0.7640037317
 H          5.2717202003        1.2653034464        1.4770078975
 H          4.5996531470        2.6229250731        1.0822108396
 O         -1.6500641577        0.1443133474       -3.8376117227
 H         -2.5306047491        0.3089174327       -4.1813854569
 H         -1.0708868161        0.8114065438       -4.2620024175
 O          1.7876824246       -2.0989322863       -4.0652102468
 H          1.8312765773       -1.2477108140       -4.5350386436
 H          0.8501616020       -2.3111560105       -3.9681948670
 O          5.5497244778       -3.8952699617       -1.6198794256
 H          6.3471188009       -3.3057126586       -1.6283430967
 H          5.8699725079       -4.7773282623       -1.8074215474
 O         -0.6994954255        1.2206655298       -1.3799894376
 H          0.1658415257        1.2759017099       -1.8096315751
 H         -1.2706154758        1.8514688905       -1.8519408315
 O          4.2044650277       -1.8979038281       -2.9451862030
 H          4.5818616902       -2.7586730499       -2.7138392320
 H          3.3177665331       -2.0652888592       -3.3201188804
 O         -3.3587760217       -2.4037232211        5.3194304615
 H         -2.4700797041       -2.7073291378        5.5072916131
 H         -3.7216475791       -2.9873614573        4.6388655786
 O          0.5305643605       -4.6442093744        2.4316506879
 H          0.9207403326       -4.6969060265        1.5399311816
 H         -0.3974211693       -4.3792224543        2.3213909405
 O         -2.1103026428        1.9524767155        4.4847275549
 H         -2.8465743107        1.3232732729        4.3830920595
 H         -2.4233956215        2.8189166267        4.1863224757
 O         -2.1681281538        2.9222330864       -2.9132371124
 H         -2.6520069082        3.6890021942       -2.5032986799
 H         -1.7114804058        3.2511105087       -3.6892253944
 O          1.9348429345        2.6708353822        3.6982753238
 H          1.4495154612        2.4213353713        4.5181589358
 H          2.0739295693        1.8165155039        3.2469130219
 O          1.7804956602        1.5508792195       -2.4721206563
 H          1.4143233614        2.4075853225       -2.7850941463
 H          2.6787939455        1.7740879521       -2.1436038914
 O          1.8751163054       -3.2009126974        4.1232261840
 H          1.3739650136       -3.7591280580        3.4653775033
 H          2.0654120494       -3.7728901850        4.8666186079
 O          4.9964738247        0.6063965162       -3.7873604683
 H          4.6571991034       -0.2823774268       -3.5810608326
 H          5.9470361731        0.5433944655       -3.6095575046
 O          1.8250940242        5.5233270314        0.3154996356
 H          2.4673711596        4.9779160042        0.8102087447
 H          2.2065274149        5.5651053430       -0.5714736008
 O          7.5524141159        0.3231824784       -2.7521286703
 H          8.3907801171        0.5172742187       -3.1724139959
 H          7.5098988128        0.8583811431       -1.9347179744
 O          0.7704457672        3.9178381523       -3.1557024314
 H          0.2099605992        4.0035690533       -2.3575160965
 H          1.5772766409        4.4168485467       -2.9499273692
 O         -0.2371160171       -4.4132762597       -1.7462527066
 H         -1.0296575715       -4.1419368830       -1.2430734275
 H         -0.2098019461       -3.8035271339       -2.4975252529
 O         -5.8648049765        3.1264400220       -1.8329657077
 H         -6.7657796067        3.4477039008       -1.8435712016
 H         -5.7653464435        2.5838496686       -1.0049683453
 O          7.5628288548        1.7978663333       -0.4429237138
 H          8.0255583951        2.6265453587       -0.3188969162
 H          6.6666832299        1.9094267667       -0.0464847793
 O          5.0114046118       -0.3367468668       -0.8960592738
 H          4.8555777585       -0.9767801183       -1.6124554904
 H          5.7424028251       -0.6644040087       -0.3475271678
 O          4.2346643237        2.2652623745       -1.8252651118
 H          4.6074566234        1.9274597947       -0.9946728954
 H          4.5952029666        1.6946893643       -2.5445678503
 O         -2.9072094646        1.0000149033        0.7359364179
 H         -2.6839992290        0.4575979621       -0.0507817994
 H         -2.0710180762        1.1288090530        1.2320924191
 O         -4.4125337516        1.5909665249       -3.6063649726
 H         -5.0635469260        2.1234307101       -3.1217906326
 H         -3.5520361177        1.9994837574       -3.3760173919
 O          7.5916954782       -2.2349456993       -1.6096175085
 H          7.6476689812       -1.9124332258       -0.6984131074
 H          7.5162981408       -1.4380338936       -2.1602617192
 O         -0.9483530077       -2.4479090881       -3.5739154930
 H         -1.1334502238       -1.4920089414       -3.6619315370
 H         -1.8050626324       -2.8750636712       -3.7121120319
 O         -5.5916385333        1.5845117775        0.2750500323
 H         -4.6651734415        1.4580394085        0.5277234088
 H         -5.8859081878        0.7148363885       -0.0607616110
 O         -6.2207065444       -1.1177989732        3.4402879559
 H         -6.7287588029       -0.8176420087        4.1943263209
 H         -5.3645865716       -0.6265489006        3.4800654080
 O         -2.0300428778       -3.6841118381        2.1175460217
 H         -2.9062110464       -3.8744044203        2.4740069131
 H         -2.1520503750       -3.5795662237        1.1397202733
 O          1.7099025900       -4.7724637257       -0.0405813979
 H          1.0043747610       -4.5898625670       -0.7172168459
 H          1.9961138946       -5.6715610177       -0.2070155338
 O         -0.2298655004        4.0224750602       -0.6705434861
 H          0.2863728635        4.7409947709       -0.2660758938
 H         -1.1073012808        3.9869507720       -0.2408425199
 O          1.3481789482        2.1683629635        0.4102657120
 H          0.7783792538        1.7206712238        1.0566669179
 H          0.7495010584        2.7635755636       -0.0947682498
 O          2.2641238697        0.1517470664        2.6159170946
 H          2.9705849503       -0.4844211022        2.8326638172
 H          1.4946298593       -0.1438497109        3.1537372444
 O         -5.9619156015       -4.3073842038        0.8875581800
 H         -6.6475404116       -3.6218320037        0.8719326386
 H         -5.5217900315       -4.2784364621        0.0277194444
 O          2.2454506140        0.4896456555       -4.8733102277
 H          3.1881606034        0.5949965430       -5.0284832184
 H          2.1007721853        0.7972616434       -3.9493478461
 O         -2.6170207502        3.7273901807        0.5777539195
 H         -2.6855695593        3.9897813926        1.5087511810
 H         -2.8037754811        2.7692287441        0.5448649998
 O          0.4510821139       -0.8531998922        4.2834476322
 H         -0.3827506021       -0.9630528580        3.7750742435
 H          0.8792259636       -1.7231365159        4.3386151396
 O          3.9352424574       -1.9524355976        2.8307936789
 H          3.9687963552       -2.3807766968        1.9484892332
 H          3.2968769713       -2.4693233915        3.3559049557
 O         -4.6771975587       -3.3855730769        3.0076989327
 H         -5.1265692485       -3.8998431340        2.2960528047
 H         -5.3523002544       -2.7655021810        3.3262111755
 O         -3.7842546917       -0.1336651055        3.9104163490
 H         -3.0484712883       -0.3999046075        3.3151241558
 H         -3.6946348966       -0.7662938623        4.6474295237
 O         -3.7054065093       -3.1764440542       -3.8080589728
 H         -4.0522498656       -2.3000437047       -3.5189611144
 H         -4.0771275522       -3.3428061339       -4.6748138383
 O         -0.0972299773        1.9910500796       -5.0504299792
 H          0.6857659986        1.4727058197       -5.2897657445
 H          0.2287020442        2.7533361106       -4.5531555703
 O          0.4142134054        1.6000871749        5.5890665212
 H         -0.5083193024        1.8321951597        5.4100351681
 H          0.4923851289        0.6722884885        5.3188531244
 O          3.2773238373        3.5799636804        1.5339538430
 H          3.0902380374        3.4763258284        2.4774387826
 H          2.5925074895        3.0210846519        1.0847869207
 O          0.2031096049        4.2983982266        2.4726921342
 H          0.6828923135        4.9179248826        1.9138110981
 H          0.8742749628        3.7802142334        2.9787463488
 O         -4.5382421530       -4.4767774722       -1.5836505819
 H         -4.4535655263       -5.4208087394       -1.7245684365
 H         -4.3023780962       -4.0425347691       -2.4314794680
 O         -2.3645863601        4.4407530732        3.2476281306
 H         -1.4006711230        4.5013926507        3.0791285805
 H         -2.6345584541        5.2758832996        3.6292316619
 O         -3.6336020127        4.7348430131       -1.7429583179
 H         -3.3539877752        4.5581991832       -0.8294780296
 H         -4.4995145571        4.3010256281       -1.8368898235
 O          3.8400962508       -3.0617684144        0.4004289681
 H          3.1048109186       -3.6888824098        0.3085031212
 H          4.5207819795       -3.3561262193       -0.2249773889
 O         -2.3476084252       -3.3251638346       -0.4649270294
 H         -3.1869753537       -3.7245239488       -0.7546192158
 H         -2.4275866395       -2.3667971044       -0.6730011073
 O         -4.6681240591       -0.9044297155       -2.8647490319
 H         -5.3583249331       -0.9387107518       -2.1785272319
 H         -4.6447945907        0.0261557231       -3.2020114610
 O         -6.0985204821       -0.9337820497       -0.5976104615
 H         -6.8689935915       -1.3295026383       -0.1720708212
 H         -5.3265647610       -1.2506716684       -0.0678111783
 O          7.2463376783       -0.7456372252        0.6734213665
 H          6.8225182505       -0.5628882087        1.5270887128
 H          7.6134262015        0.0981392540        0.3730791629
 O         -0.3285374315       -0.6734945972        0.5538268587
 H          0.6029371499       -0.9122629550        0.3859869720
 H         -0.4930401765        0.0169695158       -0.1021006012
 O          2.1504636406       -0.8738013049       -0.3198389467
 H          2.4103839450        0.0444457331       -0.2094158315
 H          2.9341460314       -1.4081558819       -0.1512030538
 O         -7.1770761214        1.4471542040        2.5529442995
 H         -6.5354969435        1.6881927913        3.2223383777
 H         -6.7133115126        1.5485857729        1.7045791149
