  101
       -167.53970044
 H         -0.9494825581       -0.0586705578        1.5948440245
 C         -0.5545672660        0.5117667087        0.7534030481
 H         -0.8437940482        1.5600294621        0.8716929252
 C         -1.0971222225       -0.0552962696       -0.5611955179
 H         -0.5960872712       -1.0028696543       -0.7694162037
 H         -0.8687504598        0.6378276792       -1.3809644341
 N         -2.5181717716       -0.3352733122       -0.4355791182
 H         -3.0361862383        0.5227122915       -0.2908254201
 H         -2.8663017580       -0.7955311485       -1.2689043637
 O          0.8559904248        0.3904041305        0.8168094675
 H          1.2395865991        0.8501701205        0.0138454890
 O         -1.0628938897       -4.2211634903       -0.7351831930
 H         -0.9164540628       -3.9172447199        0.1687175204
 H         -0.2341092267       -4.0561783072       -1.2244326521
 O          1.4623256788       -2.1832879552        0.4986947482
 H          0.8251018883       -2.6765245067        1.0441361522
 H          1.2516284494       -1.2330286943        0.6385830986
 O          4.0319095759       -2.1037231844        1.3437086768
 H          3.1037387108       -2.2114792863        1.0554928638
 H          4.5210864131       -2.0019136160        0.5123431575
 O         -2.7768810726       -2.7756219153       -2.1579571671
 H         -3.3475741740       -3.3768473161       -2.6360699004
 H         -2.2292652699       -3.3379813933       -1.5591028872
 O         -3.5057419378        0.2848774237        2.9481282708
 H         -3.2929966026       -0.5833295899        2.5519515339
 H         -2.6907689686        0.5740245311        3.3897459485
 O          5.2383863930       -1.3052636439       -1.0418257460
 H          6.0612619631       -1.6457914968       -1.3952173314
 H          5.4055956577       -0.3747455984       -0.7842132418
 O          5.2345679057        0.1439518553        2.3318744190
 H          4.4454209318        0.6628966597        2.5654296160
 H          4.8977704837       -0.7405775138        2.0919690425
 O         -0.7495413539       -1.4400522317       -3.3703432684
 H         -1.2184557902       -0.7174848351       -3.8187832137
 H         -1.4688477483       -1.9649443382       -2.9667625983
 O         -0.0847500053        3.3867996096       -1.7391266067
 H         -1.0011129383        3.2727828526       -1.4374278439
 H         -0.0872729696        3.1734139098       -2.6994232214
 O         -5.6818857686        0.4986742119       -0.5814695422
 H         -6.6067620660        0.6204970643       -0.7980068943
 H         -5.6534707339       -0.2255282596        0.0948920753
 O          1.1223078628       -3.1172701190       -2.0158331123
 H          0.5536634424       -2.5225871825       -2.5259425109
 H          1.3067919101       -2.6922706964       -1.1531196951
 O          1.5962764563        0.0744724242       -3.4432828624
 H          2.3457501323       -0.5631496847       -3.4519013172
 H          0.7980809458       -0.4760809392       -3.4275484249
 O          1.8219368764        1.5815289440       -1.2841782690
 H          1.8242081034        1.0185705946       -2.0934772774
 H          1.1615142401        2.2893598681       -1.4542739292
 O          2.7727693804        1.3979408844        2.4657098402
 H          3.1308871865        2.0204749075        1.7899597669
 H          2.0439967245        0.9537064301        1.9918567364
 O          0.5747108549        2.8360867206        3.3341127494
 H          1.4485810643        2.4140105404        3.2941165146
 H          0.5071036136        3.3256932541        2.4973066328
 O         -4.0263852864        1.5824687948       -2.6049193922
 H         -3.5522634083        2.2396589467       -2.0634790817
 H         -4.5993047062        1.0962549247       -1.9938221026
 O          0.9949389131        3.9254195946        0.8407911462
 H          1.9482483889        3.8500963099        0.7259005326
 H          0.6156767479        3.9169246358       -0.0472616247
 O          2.6074275146       -1.1863639222        3.7403332188
 H          3.1573228082       -1.6735113642        3.1154583974
 H          2.7454363150       -0.2489945095        3.5581627125
 O         -4.0658627398        2.0787667525        1.0340635001
 H         -3.8387831216        1.4790064996        1.7795429274
 H         -4.7664068983        1.6306051199        0.5344583685
 O         -2.7024893123        3.2550209736       -0.8628792669
 H         -3.1117480731        2.8448075728       -0.0591928071
 H         -2.9473879111        4.1808588907       -0.8353653565
 O         -0.5517702643       -3.3284608052        1.9700554996
 H         -0.4821865675       -4.1743536253        2.4147998799
 H         -0.4068990063       -2.6410685705        2.6905035636
 O         -1.0687479081        0.9283204147        4.0830133738
 H         -0.4939290466        1.6576241994        3.7295700871
 H         -1.1811386141        1.1220632489        5.0147184266
 O         -3.0379131946       -2.0141923305        1.5536696600
 H         -2.8083308750       -1.4608494632        0.7545241724
 H         -2.2851078882       -2.5996705894        1.7045303746
 O          3.3808770633       -1.8689566305       -3.0864268254
 H          2.7433903192       -2.5320978324       -2.7715103664
 H          3.9742524163       -1.6787906282       -2.3440951622
 O         -2.2490462579        0.6647267432       -4.3369353263
 H         -2.6904381363        0.6852521385       -5.1863160148
 H         -2.9162896496        0.9670551577       -3.6739148060
 O         -0.0559868747       -1.6191218365        3.8272093031
 H         -0.4394468029       -0.7263380939        3.8917904717
 H          0.9140583813       -1.5032256203        3.8763141275
 O         -5.6284995276       -1.2013737202        1.4458481311
 H         -4.8281842732       -1.7523298790        1.4081291646
 H         -5.4867913314       -0.6242998267        2.2037604831
 O         -0.0038711817        2.2905504591       -4.1722198598
 H         -0.8141906799        1.7645926582       -4.2810772830
 H          0.7165616573        1.6466032596       -4.1186639256
 O          3.6483732759        2.7413600973        0.3248324568
 H          4.5170560196        2.3462213910        0.1513319401
 H          3.0621143614        2.3444176423       -0.3490043885
 O          5.8900618008        1.1189686585        0.0175731166
 H          5.7039938216        0.7657592811        0.9386859991
 H          6.7883622539        1.4492817633        0.0327405473
