  189
       -320.74797138
 O          0.3594305162        1.9568281681        3.2777372538
 H         -0.3876698121        1.6740862608        2.6709465152
 H          0.2071240327        1.4296858314        4.0764926737
 O          6.0000147162       -0.0960514407       -1.0413180139
 H          6.7932147342        0.4460000399       -1.1325581439
 H          6.2138715256       -0.8142334878       -0.4000296690
 O          2.1544150796       -4.1846481242        0.9520802643
 H          2.2048124340       -3.5345124729        1.6810846676
 H          3.0107509579       -4.0732607172        0.4833742054
 O         -0.3862573345       -4.2673114579        2.4052766193
 H          0.4555366005       -4.6596809911        2.1599970870
 H         -0.8955229442       -4.1833111934        1.5644032053
 O          3.2391353799        2.0260386816        4.2252669602
 H          2.7625557522        1.1750416936        4.4225960190
 H          3.5873976592        2.3391150908        5.0591629022
 O         -0.0783756112        1.4781847833       -3.0955921462
 H          0.5256702736        2.1323796504       -3.5068450490
 H         -0.9124803190        1.9580890474       -2.9259210013
 O          2.2122834981        0.6415226600       -1.8217116491
 H          1.3862241834        1.1212450560       -1.9906153507
 H          2.8245763346        1.2398915702       -1.3147712231
 O          0.2000834050       -2.4648467847       -5.0644875776
 H          0.8041712204       -2.6839978186       -5.7732307311
 H          0.7528237293       -2.1818466235       -4.2983129717
 O         -0.4952695140        4.4643609197        2.6208844904
 H         -0.1685921149        3.6037469665        2.9491209161
 H         -1.4528343387        4.4308370893        2.7501966803
 O         -0.5432072084        4.8493398621       -3.1299588525
 H         -1.2651405204        4.2195118369       -3.2269778651
 H         -0.4773721590        5.0478330167       -2.1889130447
 O          4.2454263271        4.3949570585       -1.2211000080
 H          3.2752622445        4.3442052757       -1.1556473738
 H          4.5494503991        4.7423056180       -0.3528288696
 O          5.7892171545        3.0081409090       -2.9831366268
 H          5.2594162305        3.6799767627       -2.5213004503
 H          5.1477366808        2.3853853490       -3.3773659657
 O         -3.2883111570        3.7572731673        2.6314341926
 H         -3.7167633000        3.0490718792        3.1540961875
 H         -3.9389339865        3.9921309782        1.9641458832
 O         -4.3165617959       -2.7699352156       -1.2495969700
 H         -4.9526248605       -2.3656332346       -1.8796245799
 H         -3.4500437297       -2.3943790361       -1.5009358198
 O          1.7055245142        3.3878910281       -3.6483688965
 H          1.8842049183        3.4408818868       -2.6906213207
 H          1.0562085719        4.0952725244       -3.7926986122
 O         -5.0088725312        2.9206156503        0.3455446929
 H         -4.7470883269        2.0668902235        0.7159006886
 H         -5.4960961460        2.6919935405       -0.4816669687
 O          2.1935825285       -0.3213574134        4.7507907082
 H          2.1584383153       -0.9218209115        3.9827218388
 H          1.2821664278       -0.2537722740        5.0692963994
 O         -4.5218900592        0.1931618773        1.0198109446
 H         -3.9433295685       -0.5843687943        1.1791830865
 H         -5.4358710296       -0.1602967223        1.0171931179
 O         -3.1727558640        4.3800027357       -0.8021379409
 H         -3.8421773700        3.8305964662       -0.3124057654
 H         -3.6273529660        5.1736607642       -1.0847762479
 O          5.2487696527       -1.0202486966       -3.5254799448
 H          4.8370075139       -0.2529419632       -3.9369187807
 H          5.5463237783       -0.7208596463       -2.6473758757
 O         -3.2945479651       -0.3305078318        5.2969619667
 H         -3.7364654517       -0.3456015547        6.1456685521
 H         -3.6055791846       -1.1332029418        4.8089591042
 O         -0.7961296845       -4.0839584864       -2.9900609379
 H          0.0401762044       -4.4378611537       -2.6338148749
 H         -0.5808464065       -3.7330505940       -3.8660953551
 O          3.1646230014       -0.8988320835        0.2240749948
 H          3.8002452815       -0.2567749213        0.5651676914
 H          2.7313753510       -0.4678227672       -0.5316702002
 O         -5.7851919058       -1.4482722907       -3.0186175888
 H         -6.4424141272       -0.9176886362       -2.5457523354
 H         -5.2516786246       -0.8295330226       -3.5456605822
 O         -3.0144254257       -5.1569644906       -1.6967088758
 H         -2.3151615842       -4.9942278072       -2.3479292780
 H         -3.6538350031       -4.4303101193       -1.8015437217
 O          1.9158834623        1.7105173467        1.1052079788
 H          1.5275429980        1.9233385643        1.9768830230
 H          2.8682634050        1.5813192558        1.2311024654
 O         -0.5284471392        4.8127242149       -0.0927856659
 H         -0.4425670366        4.7934474245        0.8813268980
 H         -1.4655915053        4.6365540976       -0.2683632233
 O          6.4430718929       -2.0770255164        0.6788478623
 H          5.8438676329       -2.7253237136        0.2654314560
 H          6.0891523078       -1.9416756435        1.5690324196
 O          3.7969200684       -3.2450806516       -3.0210524727
 H          4.4771357600       -2.6140948214       -3.3258311605
 H          2.9735794171       -2.7141022972       -3.0452332732
 O          1.5532313535       -1.7844776254       -2.8958654105
 H          1.1235636487       -2.1955310382       -2.1085193033
 H          1.7713857225       -0.8758185095       -2.6403446308
 O         -7.6543184588       -0.1616513625       -1.3576453834
 H         -8.5212704783       -0.5267709483       -1.5349512278
 H         -7.4023849130       -0.4520907312       -0.4592602505
 O          1.6571385983       -5.0071853827       -2.1406926653
 H          2.4553761212       -4.6300413222       -2.5313857413
 H          1.8309475519       -5.1179307740       -1.2029001675
 O         -4.4419191953        1.4890331085        3.5475495060
 H         -4.4979999575        0.9884653196        2.7189010960
 H         -3.9873206328        0.9169823264        4.1879831099
 O         -5.9907866988        2.0031601383       -1.9513316154
 H         -5.2289123203        1.4223255681       -2.1147883651
 H         -6.7369799393        1.4048484746       -1.8157075543
 O         -0.5772002323       -1.6057647961        2.8079891119
 H         -0.0955231170       -1.1520032154        2.0883834502
 H         -0.3266621170       -2.5517729714        2.7913591282
 O          7.4853349191        2.2090056085       -1.1906009610
 H          8.3136869244        2.6286880508       -1.4210093060
 H          6.8347575722        2.4998146805       -1.8965232892
 O         -2.5086718689        2.6326005657       -2.7678679266
 H         -2.7471551191        3.2944374330       -2.0917122152
 H         -2.9651949267        1.8201550998       -2.4862061673
 O         -2.0136644481       -1.7732124245       -2.2041933844
 H         -1.9041419236       -1.2756562589       -3.0408894296
 H         -1.5311069175       -2.6073760480       -2.3583481919
 O         -1.5037659190       -0.3911056294       -4.4463575260
 H         -0.9591901570       -1.0673465729       -4.8782861870
 H         -0.8937380734        0.2698738855       -4.0594658320
 O         -3.7362752543        0.4688590278       -1.5908927713
 H         -3.2741723412       -0.3341541061       -1.8562390893
 H         -4.0116976216        0.3442713334       -0.6638195514
 O         -1.7293640637       -3.7708099467        0.1892196291
 H         -0.9802306073       -3.3752360952       -0.3013480677
 H         -2.1726843415       -4.3960645915       -0.4241440463
 O         -0.5263293987       -0.0199670256        4.9769212057
 H         -0.5593192495       -0.6408544520        4.2207081373
 H         -1.4430341905        0.0221419780        5.2815636247
 O         -4.1819734133        0.3724903676       -4.4001775221
 H         -4.1389628595        1.3290229234       -4.3448209125
 H         -3.2704914793        0.0672387208       -4.5288854002
 O         -4.2047249341       -2.3584505648        3.8402632786
 H         -3.8117277145       -2.0901794641        2.9790790448
 H         -3.8318184263       -3.2587473382        3.9606582061
 O          0.5896146985       -2.6984763665       -0.6118276356
 H          0.5634525814       -1.8438976481       -0.1441202626
 H          1.1688162526       -3.2899229918       -0.0800912522
 O          4.4538103455        0.9239005490        2.0999105070
 H          5.1731211042        1.4702320095        1.7324799101
 H          4.0960072241        1.4075956753        2.8707099199
 O          2.5276948403        4.1467685501        2.4752447567
 H          2.5913368042        3.4742142388        3.1674470530
 H          1.6533149532        4.5401492421        2.5383530331
 O         -2.8953088519       -1.8041502071        1.5888341804
 H         -2.0570283286       -1.6647829589        2.0939786383
 H         -2.7007485082       -2.5645816035        1.0027842601
 O         -6.9876164983       -0.8250147855        1.2021335912
 H         -7.5043072739       -0.3635466508        1.8641125874
 H         -6.7959612991       -1.7342551012        1.5870461670
 O          5.0538701404       -1.4775011600        3.0623469940
 H          4.8647790084       -0.5713834047        2.7159447770
 H          5.2459811609       -1.3849983908        3.9953191177
 O          4.1413709106        1.7911532701       -0.5278870592
 H          4.8777675869        1.2088612601       -0.7873194558
 H          4.3394786708        2.7034791730       -0.8176669347
 O         -6.3929593060       -3.0574932279        2.3620512707
 H         -5.7619554369       -2.8007279274        3.0621238102
 H         -5.8859703594       -3.6648171035        1.7952768096
 O          1.6927199845        3.5285307524       -0.9156565986
 H          0.9284031217        4.0751278740       -0.6579642086
 H          1.8512546158        2.9310614527       -0.1591125227
 O         -4.5380550327       -4.4255969136        0.8711659129
 H         -4.4627415976       -3.7456783908        0.1695661200
 H         -4.4749770719       -5.2649169209        0.4115661753
 O          4.2560543526       -3.2884351154       -0.4063888934
 H          4.1947745431       -3.3825121570       -1.3846622050
 H          3.9004474072       -2.3939884323       -0.2240144519
 O         -3.0649588140       -4.6955485989        3.3274354220
 H         -3.4815053072       -4.7001498093        2.4513465467
 H         -2.1111878017       -4.6465475254        3.1795585863
 O          2.4307308675       -1.9962057476        2.5525752579
 H          2.4641270085       -1.4836649004        1.7211503336
 H          3.3669897389       -2.0634377204        2.8130062252
 O          3.7460121632        1.4468032341       -3.9425395509
 H          3.2267265517        1.0412271718       -3.2223781269
 H          3.1942901053        2.1749999371       -4.2539958612
 O          4.9248452837        4.8424287205        1.3073703506
 H          4.0712121866        4.6765785041        1.7429047371
 H          5.4491352695        4.0362207606        1.4165056512
 O          6.5241685807        2.4978934682        1.2986424011
 H          7.3201853358        2.5196217508        1.8295432308
 H          6.8163607244        2.4111024176        0.3621565643
 O          0.4863754094       -0.4601934825        0.7522325420
 H         -0.2864835637       -0.0757851543        0.2723140879
 H          1.1069179621        0.2908006346        0.8695161288
 O         -1.7844530126        1.6702328087        1.7747970726
 H         -2.3077547084        2.4461915423        2.0514059790
 H         -2.3670883484        0.9097320114        1.7321804461
 O         -1.2554716223        0.8023987678       -0.6457186761
 H         -0.8068708109        0.9068122501       -1.4897228040
 H         -1.3058627002        1.6483655237       -0.1902931092
