  311
       -524.05887623
 H          1.1912321850        1.4438379095        0.2593888117
 C          0.4929929182        0.7662164917       -0.2375767990
 H          0.3090960345        1.1204781801       -1.2501689770
 C         -0.8260051232        0.7563954885        0.5275331828
 H         -0.6268017238        0.5525239117        1.5801322063
 H         -1.4830038395       -0.0217082729        0.1414700287
 N         -1.5014018670        2.0471646302        0.4261677700
 H         -1.9192918405        2.1699018175       -0.4895915876
 H         -0.8178526222        2.7915121402        0.5345032297
 O          1.0837559246       -0.5139378490       -0.3661399390
 H          1.0585268529       -0.9768555257        0.4981879156
 O          5.5333696141       -0.6233976941       -1.8946596731
 H          4.6812544902       -0.9858528675       -1.5821163038
 H          5.9972334693       -1.4229044768       -2.2594368673
 O          8.4420866090        2.6245720394        1.8391045200
 H          8.2324691860        3.5568848535        1.9796628203
 H          7.5715340732        2.1886055594        1.7808408828
 O         -0.4759079734       -1.7934567548       -2.1474521608
 H          0.1123066521       -1.3365117228       -1.5165032099
 H         -0.0212416462       -1.8197277084       -3.0037133100
 O          2.6552462378       -3.0964043812       -3.6152966384
 H          3.4795074602       -3.0094568429       -4.1437875405
 H          2.6572858248       -3.9751883957       -3.1963332682
 O         -2.4971735861       -6.1612166450       -1.3389167805
 H         -3.1528774869       -5.8130609439       -0.6959488279
 H         -2.2670049089       -7.0397736635       -1.0376392933
 O          2.4145194963       -0.5976520878       -2.7822412965
 H          2.4986090318       -1.5549886427       -2.9803361586
 H          2.2448962396       -0.5330067531       -1.8299516767
 O         -3.2595830727       -2.0545324955        5.2480976070
 H         -2.9786463779       -2.8510759849        4.7549941531
 H         -2.5393430735       -1.8530362848        5.8681923992
 O         -0.2503299579       -4.7947933564       -2.4562525548
 H         -0.9390706155       -5.2583568333       -1.9584948398
 H         -0.7140217324       -4.3312264420       -3.1810798193
 O         -2.7141898455       -4.0496005527        3.4834740350
 H         -2.1014360086       -3.4496088366        2.9963766440
 H         -3.5992909563       -3.8720609120        3.0789289124
 O          1.3585912411       -3.4069691980       -0.5970826784
 H          1.6852007676       -4.2092942360       -0.1661836959
 H          0.8084303112       -3.7198630952       -1.3330235151
 O          0.9150040880       -5.2153054407        3.2035340338
 H          0.4659361432       -4.5611649519        3.7734048361
 H          0.3409770433       -5.3229580589        2.4215456967
 O         -1.5096174995       -2.2533271829        1.9636972714
 H         -0.5437556368       -2.1341676832        2.0422617338
 H         -1.6548202556       -2.6296418917        1.0694580733
 O         -2.5489441172       -6.4720527331        2.5446814699
 H         -2.4225264833       -7.1112320063        3.2442185489
 H         -2.5702476368       -5.5732207871        2.9847548639
 O          6.9263967616        1.9490733618        4.3744174176
 H          7.8578591658        2.0677786643        4.1760873063
 H          6.4743204828        1.9859583412        3.5144822192
 O         -5.0169501980       -1.0308573464        1.2767643581
 H         -5.8315830229       -1.2267064473        0.7509055872
 H         -4.2480652067       -1.0986436860        0.6445892851
 O         -3.7282727201        3.7010730684       -0.9448288173
 H         -4.6914094765        3.5625154685       -1.0212264514
 H         -3.5904389438        4.2451997425       -0.1474688283
 O         -2.7977365381       -1.3514959192       -3.3228580665
 H         -2.0582304117       -1.3748418117       -2.6839816151
 H         -2.5408093921       -0.7020363813       -3.9972929095
 O          4.4325076918        0.2858459145       -4.2426106723
 H          3.6329586203        0.0259380294       -3.7261453570
 H          5.1422495550        0.2118623805       -3.5863091413
 O         -1.4569493341        2.5987782090        5.7146996991
 H         -1.0801204537        1.7716279338        5.3462216861
 H         -2.4147668145        2.4275396610        5.7432423554
 O         -1.6595860600       -3.5165322077       -0.3390613419
 H         -1.1534782098       -2.9805055541       -0.9747589281
 H         -2.5530607542       -3.6095227184       -0.7200578332
 O          6.6173845575       -0.4442360554        0.5238372143
 H          6.5300088933       -1.3341300179        0.9464730998
 H          6.2132941358       -0.5146861832       -0.3713004727
 O          5.6711137026       -0.1877256280        5.4400999745
 H          6.0815621293        0.6317737503        5.0893576270
 H          6.3503221371       -0.6326020022        5.9466204474
 O         -5.5839876792        0.1960987519        3.7422319946
 H         -6.2554736956        0.8120980103        3.3998212989
 H         -5.1964591479       -0.2280206644        2.9605207885
 O          6.8887235267        4.9616499015        2.0462871134
 H          6.4410574220        4.5511483653        1.2601755048
 H          7.0257548036        5.8821062457        1.8226650189
 O          2.1179936529       -1.5023507239        4.5212167770
 H          2.1823072123       -0.7248615297        5.1030758713
 H          3.0314835702       -1.7093679142        4.2521984136
 O          1.3572881229        3.0927684357        5.7117317602
 H          0.4357098176        3.0420732287        5.9973975219
 H          1.7607974844        2.2365410240        5.9168000195
 O          1.4761454223        0.8397068262        2.8766341055
 H          1.0878731390        1.7297141271        2.7574112066
 H          2.3479742081        1.0399919390        3.2589674888
 O         -0.4731027334        0.3283920750        4.6591319497
 H         -1.2636601351        0.1111363940        4.1073797522
 H          0.2888475626        0.3898014755        4.0480084649
 O          0.5357508036        4.0024194063       -0.1267890910
 H          0.3503150906        4.1196236825       -1.0823105347
 H          1.4892046917        4.0158301166       -0.0114740808
 O          2.8932808572        0.7000305273        5.9294765567
 H          3.5948019976        0.3938564293        6.5069999157
 H          3.3583867232        1.0565554569        5.1444928817
 O         -6.5203273981       -4.0930841748       -0.9412245906
 H         -6.4156150258       -4.9404729213       -0.5046348589
 H         -6.6240512382       -4.2674500483       -1.9119253877
 O          2.9020811674       -3.8677047565        2.2199302108
 H          2.2113705658       -4.4340121746        2.6604196338
 H          3.4431634009       -3.4727287464        2.9086042068
 O          3.6294453616        1.8591702792        0.0794663142
 H          3.2662153472        2.0403617416       -0.8054521364
 H          3.3853818963        2.6255024496        0.6291635897
 O         -8.0553460916        1.2353062511        0.0012582210
 H         -7.8339922383        0.2962343706        0.0148745881
 H         -8.8024434373        1.3296739133       -0.6160645251
 O          3.5675334520       -1.9840242091       -0.6621646966
 H          3.5288821389       -1.4512845650        0.1593213519
 H          2.6970565260       -2.4411687478       -0.7302403325
 O         -6.3625825595       -4.4117668970       -3.5556666122
 H         -6.1552606906       -3.5214749235       -3.8901788270
 H         -5.5531177511       -4.9189433250       -3.7099337139
 O         -7.5701877426        2.1048742662       -3.2775298409
 H         -7.2410554177        2.6745245827       -2.5562858234
 H         -7.2989167587        1.1962926708       -3.0301180807
 O          5.1618860179       -5.0825459176       -2.3030810022
 H          5.0697808902       -4.9764923470       -1.3422482001
 H          4.3009609267       -5.3729942872       -2.6233577790
 O          4.6230640138       -1.7667772591        3.4779685450
 H          4.3454114975       -1.1946008045        2.7299445117
 H          5.0354140666       -1.1794803601        4.1395409855
 O          3.7462718513        2.8895306312       -4.4987718255
 H          4.4763848197        3.4932185717       -4.2238093831
 H          4.1292842061        1.9930640895       -4.5383043298
 O          3.6848398915        5.0295634049       -1.3170583535
 H          3.1513704297        5.6909717074       -0.8457849666
 H          3.0842211653        4.3255010054       -1.6161363316
 O         -5.2184018465        3.8999487629        3.1729860443
 H         -6.0103603973        3.3405770167        3.1184578918
 H         -4.4893095332        3.3344742288        2.8656181571
 O         -6.4673132717       -0.2767485803       -2.5463591766
 H         -6.1745592546       -0.9405479192       -3.2172722834
 H         -5.6494985332        0.1709263666       -2.2713428829
 O         -5.0383312922       -3.4797020900        2.3712808587
 H         -5.5380642088       -3.2835401949        3.1948105530
 H         -4.9556276451       -2.6006531616        1.9464384301
 O          3.5576491380       -0.3620096620        1.4539020868
 H          3.6916401798        0.4587058765        0.9254945057
 H          2.6540236758       -0.2800381979        1.7978399600
 O          5.5891680377        3.7813459369        0.1178604404
 H          5.9339284937        3.2014616733       -0.5968207613
 H          4.8651738591        4.2933854589       -0.2976940210
 O         -3.2289211419       -1.0472526942       -0.5730451732
 H         -3.4667235172       -1.8561013993       -1.0574677720
 H         -3.5335707814       -0.3107469361       -1.1370486519
 O          4.7407353705        4.3538889464        3.5827143527
 H          4.6937267898        4.9270527183        4.3472440904
 H          5.5906734763        4.5370721816        3.1282698607
 O          4.8625037994       -2.4010131645       -4.9311182165
 H          5.6287010523       -2.6317931847       -4.3887692043
 H          4.7840107825       -1.4345791915       -4.8910664002
 O         -1.9021473741        2.0006966829       -2.8274285072
 H         -1.2029798605        1.3949151141       -3.1309310975
 H         -2.2506205564        2.4463154035       -3.6327888091
 O         -3.6720516172       -5.1889710702       -3.6133252756
 H         -2.9839172165       -4.7644994562       -4.1459976418
 H         -3.2153763011       -5.7316314954       -2.9495185849
 O          2.3601885547       -5.5807633062       -2.5067873880
 H          2.4149033040       -5.8209769279       -1.5698865285
 H          1.4071648489       -5.4726964202       -2.6702885673
 O         -2.8891369801        3.4932258697       -4.8126469445
 H         -2.9136455156        4.2902800801       -4.2586001172
 H         -3.7860908942        3.1090959696       -4.8059957101
 O         -2.6641392460       -0.2704864550        3.3058506802
 H         -2.3337502279       -0.9420138580        2.6733541655
 H         -3.0883854076       -0.7860739178        4.0224362190
 O         -5.9459171702       -2.4079014899        4.6469819099
 H         -5.0971903394       -2.3970501949        5.1132992937
 H         -6.0834529422       -1.4768713593        4.4077690442
 O         -4.4314705196       -0.1390347945       -5.9299398310
 H         -3.4641099699       -0.1194469958       -5.9025507976
 H         -4.7204625295        0.6884837306       -5.5082602257
 O         -1.6464040368       -3.5241527312       -4.4198671770
 H         -2.1554196253       -2.7763428380       -4.0309166092
 H         -0.9155814907       -3.1074392702       -4.8925125058
 O         -1.6718293949        0.0539428182       -5.3075823253
 H         -0.9324603206       -0.5543976484       -5.3890678015
 H         -1.4052908969        0.8832627775       -5.7698073924
 O         -3.1732622503        2.2424577403        2.3491470087
 H         -2.5043578006        2.1690136319        1.5724586142
 H         -3.0928158825        1.4018882546        2.8374317353
 O         -0.0707783111       -3.1450126005        4.6115501453
 H          0.7123382215       -2.5725195806        4.6342594676
 H         -0.5326435322       -2.9682354178        5.4343247783
 O          8.3529498863       -3.0072289589       -0.6845556421
 H          7.8750459190       -3.1664628626        0.1361400291
 H          8.8518030540       -2.1862072537       -0.5547972402
 O          2.1789112508        6.4462205038        0.4990944865
 H          2.4234034755        5.6772721802        1.0442153185
 H          1.2494245497        6.6181284916        0.6836369291
 O         -7.0955262988       -1.4811607455       -0.2686089960
 H         -7.0942159339       -2.4404234423       -0.4035753454
 H         -6.9081377165       -1.0906752095       -1.1532002337
 O         -6.4649208288        3.2563165426       -1.0610911533
 H         -6.8779948844        2.5069150833       -0.5893874445
 H         -6.5513872240        4.0136210749       -0.4520868644
 O          1.0898483896        3.3253979220       -4.9959349238
 H          0.7439004120        3.8117116423       -4.2269719510
 H          2.0582213001        3.3417066337       -4.9379439619
 O          0.5222778883        1.1576832444       -3.4293165978
 H          1.1403949759        0.4044087725       -3.4034560916
 H          0.7148529768        1.6577375839       -4.2390366050
 O         -1.6484221526        4.1304382823        3.5113257349
 H         -1.6029158234        3.7952954835        4.4313962405
 H         -2.2522910223        3.4990853009        3.0667145599
 O          1.8728443049        0.3517028941       -5.8186033084
 H          1.6280772741        1.0443119297       -6.4347162189
 H          2.8238253868        0.3990741665       -5.6838003827
 O          4.7186137961       -4.1629592489        0.2413480000
 H          4.3825574307       -3.3573561637       -0.2242417737
 H          4.0385560271       -4.3293036339        0.9153450970
 O         -0.9932561670        2.3473979879       -6.4417938414
 H         -1.7386211991        2.8667196795       -6.1041673548
 H         -0.2065165974        2.7617723482       -6.0528481366
 O          2.8716211434        4.0187751179        1.5920295415
 H          3.5849088020        4.1806380853        2.2287204434
 H          2.0826120425        3.7913593140        2.1338895112
 O         -4.1001892196        2.0585220104        5.2227164117
 H         -4.5422417796        2.8414356164        4.8758402736
 H         -4.5481319760        1.2959620671        4.8174824267
 O          5.5908637495        4.3147178285       -3.2821301101
 H          5.0456241538        4.7737250379       -2.6269209749
 H          6.0221318186        3.5803844909       -2.8155823380
 O          6.4462452819        2.1248491103       -1.7835188012
 H          7.4029161529        2.0963175651       -1.5382379960
 H          6.1235501424        1.2143695221       -1.7737469782
 O         -5.2967779089       -1.9537331968       -4.1879941738
 H         -5.1109755725       -1.4004916086       -4.9799692643
 H         -4.4493007768       -1.9522800464       -3.7095732365
 O         -4.2073401945        1.0810935884       -1.8895337099
 H         -4.5089362740        1.5187472717       -1.0656752431
 H         -3.3437753071        1.4791734818       -2.1365520016
 O         -5.0938830467        2.0492080446       -4.3634915156
 H         -4.7942663299        1.7094832254       -3.5007431774
 H         -6.0466650972        2.2190985568       -4.2517290200
 O          0.5760699058       -1.8803121894       -4.7888060789
 H          1.2912369699       -2.4740373206       -4.4843152206
 H          1.0412093094       -1.1365293597       -5.2019367067
 O          6.4705775684       -2.8053456758        1.6739978331
 H          5.9330031348       -2.5897381814        2.4531561604
 H          5.9016253743       -3.4004066734        1.1273415966
 O          3.9074897028        1.7192868211        3.6717072150
 H          4.5335567269        1.4820642048        2.9593496031
 H          4.0739666393        2.6594404058        3.8339393823
 O          8.9083971394        2.0896420716       -0.8325004788
 H          9.2082837926        1.1689754757       -0.7687843808
 H          8.8612074719        2.4010164616        0.0903306606
 O          0.8309269976        3.3724779678        3.1160783025
 H          1.1239537670        3.3522285173        4.0553740144
 H         -0.1044027891        3.6786894393        3.1547599195
 O         -0.6619529468        5.8543836351        1.4080575264
 H         -0.7875674840        5.4749783869        2.2865333694
 H         -0.2633439937        5.1469514924        0.8578050033
 O         -4.2873042326       -5.5226388534        0.6043579178
 H         -3.8182331492       -6.0266962478        1.2849002160
 H         -4.6303311702       -4.7464598613        1.0763904634
 O         -2.7421035091        5.3134228673       -2.7675368337
 H         -3.1048824931        4.6706604437       -2.0969217214
 H         -3.1010141057        6.1702413169       -2.5409719150
 O         -5.0832535571        1.5695712779        0.6300224600
 H         -5.1058358327        0.6184717384        0.8565227578
 H         -4.3718343175        1.9413847752        1.1888365164
 O         -9.8851429846        1.4534709176       -2.0253029781
 H        -10.2530925757        0.6869194192       -2.4656018795
 H         -9.1982794550        1.8149649670       -2.6224647882
 O         -6.1081584849        5.1817313853        0.8253067974
 H         -5.9610728310        4.7883925684        1.7026143973
 H         -5.2928502191        5.6584107030        0.6383347496
 O         -0.5527588158       -5.6227226495        0.9267893243
 H         -0.9156798486       -4.8494844790        0.4452617290
 H         -1.3012556704       -6.0345398455        1.3912663284
 O         -4.0153632506       -3.3912596687       -1.6028728266
 H         -4.8930428276       -3.5965029371       -1.2263332079
 H         -3.9335805761       -3.9415410820       -2.4048229286
 O          2.0132975056       -5.9867399505        0.2329930335
 H          2.4637860115       -6.2178740934        1.0457292763
 H          1.0572631262       -6.0269987420        0.4261047581
 O          2.4471237814        2.7291039428       -2.1816395440
 H          1.6329290478        2.2655568447       -2.4406234590
 H          2.9753743757        2.7775357788       -3.0096902289
 O          5.8546314546        1.6801349355        1.8404312093
 H          6.0368095865        0.8532374078        1.3349280209
 H          5.5348801624        2.3400918069        1.1938235117
 O         -7.0478947951        2.0550054827        2.3952315332
 H         -6.4311252699        1.9460351937        1.6340937632
 H         -7.9173833122        1.9519813512        1.9993949530
 O         -0.2479691207        4.1575446723       -2.6848022010
 H         -0.9433190657        4.8283678531       -2.7658294718
 H         -0.7529250816        3.3176912078       -2.6489217432
 O          1.1358980041       -1.8241719179        1.9984674858
 H          1.6933774462       -2.6115576361        1.8481330598
 H          1.3377926511       -1.5276942233        2.9037055698
 O          6.5960653819       -2.8538928176       -2.7535449404
 H          6.0685925444       -3.6740156230       -2.6396797866
 H          7.3494993695       -2.9678645893       -2.1424559462
 O          9.2321312171       -0.4772171705        0.1021932274
 H          9.6954246500       -0.3651215217        0.9324619950
 H          8.2667721047       -0.3974468990        0.3025686708
 O         -0.9878957846       -1.3833797462        6.6373334132
 H         -1.0996472371       -0.8658395925        7.4338721078
 H         -0.6928876029       -0.7553946743        5.9373541264
 O         -3.3163902593        5.4334988462        1.1027797711
 H         -3.5337528606        5.1999939237        2.0105286889
 H         -2.3769252684        5.7113283879        1.1157464940
