  609
      -1033.97018332
 O         -0.4653309911       -3.3857023612       -1.6076385757
 H         -0.3678971541       -3.0969929301       -0.6862828177
 H         -1.0122509051       -2.7217046471       -2.0708218014
 O          0.7672232002       -0.5574504573       -2.0497541293
 H          1.3260636676        0.2401352321       -1.9847112521
 H          0.7396927035       -0.8157143978       -2.9887298995
 O          6.8462270910       -2.3185608505       -2.3592263978
 H          7.3790052829       -2.0248459588       -1.5770158012
 H          5.9606277413       -2.6024992196       -2.0509944383
 O          0.4910148872       -3.0626882134        0.8999541724
 H          0.3249764572       -2.6170547756        1.7479858319
 H          1.2863268411       -2.6354902852        0.5078537121
 O          2.4422308748       -1.8669742018       -0.4333828212
 H          1.8512804437       -1.4576106270       -1.0936802400
 H          3.0801567742       -2.4111727880       -0.9258740077
 O         -0.7008137803        0.1597452579        4.7215270945
 H         -0.6599682966       -0.7065276945        4.2710846992
 H         -1.6012597951        0.5204870449        4.5769091665
 O         -2.6060868300       -2.6624785065        0.9850850283
 H         -2.0616279167       -1.8587236745        0.7417858066
 H         -2.7560218872       -3.1202923040        0.1418361763
 O         -1.6596204470       -4.2247953122        2.8265490732
 H         -2.1233200143       -3.6484651501        2.1705697698
 H         -1.0454133013       -4.7581429784        2.3073927456
 O         -1.1988828856        1.4052848407       -2.1621179147
 H         -0.5972134069        0.6443570065       -2.2260792873
 H         -0.6860485634        2.1881374479       -2.4348761402
 O          3.3722898444        0.7840788165        0.6143975069
 H          3.5910780409        1.6896748275        0.9152447440
 H          2.9463779832        0.9347310822       -0.2489354808
 O         -2.1449670778        4.7248542850       -1.0489287948
 H         -2.8398568972        4.1814064065       -1.4684978100
 H         -1.3088573580        4.4045943409       -1.4261259358
 O         -0.3093771501        4.8406749396        1.5255630943
 H         -0.2219997893        4.0090853942        1.0352500455
 H         -1.2633499301        4.9002517603        1.7486342414
 O         -4.9395532227        5.5505046699       -0.5858354713
 H         -4.2842295682        6.2589738509       -0.4298791669
 H         -5.2124695574        5.6010082136       -1.5159359750
 O          2.5792362452       -2.5514920958       -3.9534818611
 H          1.8077236266       -3.0597109867       -3.6702358472
 H          2.7807890621       -2.8816052760       -4.8564562344
 O          0.0655269184        3.8192115816       -2.3381198580
 H          0.6643827876        4.0236340294       -1.5929206665
 H          0.5851048151        3.9333516989       -3.1381805979
 O         -5.1897744482        3.2004649496        0.7541033271
 H         -5.0123607118        4.0652046692        0.3518553469
 H         -4.5667661470        2.5719075356        0.3320836551
 O         -4.2525341474       -2.5821295014       -4.1409254097
 H         -4.6495818163       -3.1353049826       -3.4451158293
 H         -4.7180380257       -1.7241537992       -4.0407578653
 O          1.7810579003        0.8645286833        3.9079243381
 H          1.7182718696        1.8158744985        3.7364263062
 H          0.9182257741        0.6101119835        4.2811938125
 O         -3.9372024234       -6.1337556933        3.6900321813
 H         -3.4459099606       -5.9476678945        4.5046704941
 H         -3.2922007284       -6.5133389313        3.0764831330
 O         -3.2374645372        1.0043930029        4.5027106887
 H         -3.4455312476        0.1259058090        4.1381132479
 H         -3.7065694597        1.0409273414        5.3654234766
 O          1.4584187577        3.5152770674        3.3850851898
 H          0.4773724216        3.4551356235        3.3881054711
 H          1.6736146611        4.2931100355        2.8286683579
 O         -3.4792938557        1.6675215246       -0.6556185316
 H         -3.7141913566        0.7391466649       -0.8349119128
 H         -3.4545863272        2.1171547429       -1.5045382071
 O         -0.0732095930       -0.9661470819       -4.5226989795
 H         -0.8982260718       -1.1867482821       -4.0560047134
 H          0.1008484861       -1.6806188890       -5.1617299121
 O          3.8016738150       -0.1946270560       -2.6341324529
 H          3.9744396013       -0.8605607273       -1.9624618070
 H          4.1462780537        0.6379097585       -2.2653955192
 O          4.8496543268       -2.7582838868        1.1693195067
 H          4.1989115918       -3.4094675505        0.8189670065
 H          4.5238944468       -2.5438758886        2.0709983588
 O         -3.9970752727        0.0263217390        1.7044955411
 H         -4.6045378830        0.1383735845        0.9575318694
 H         -4.5755923455       -0.1768534718        2.4596957866
 O         -5.5951092197       -0.7767283709        3.6727534291
 H         -5.8692962178       -0.8100222699        4.6040836911
 H         -6.3682729682       -1.0051206907        3.1351587174
 O          4.6782323230        5.2890680661        0.2470723939
 H          5.2582502461        5.8021198971        0.8513025410
 H          4.1663752121        4.6722131837        0.8008697057
 O          4.8165471046        1.9445252401       -1.3381350014
 H          5.5448958593        2.2332971207       -0.7757826454
 H          4.3952198866        2.7649081590       -1.6486141648
 O          2.3406829310       -1.3859021180        2.2621415047
 H          2.0997401749       -0.6186064751        2.7959207079
 H          2.5718095730       -1.0809772479        1.3757342550
 O         -2.7798278274        2.3313780617        1.9969955741
 H         -3.2748421591        1.4806094798        1.8993546129
 H         -2.1092375885        2.3272007522        1.2886487930
 O         -1.1233437877        3.1806197654        3.8425017991
 H         -1.2014234066        2.8481692851        4.7564941136
 H         -1.8077722876        2.7482951509        3.2838886482
 O         -3.9513273955       -0.9651954537       -1.2268004995
 H         -4.3655915340       -1.5096072591       -0.5346756387
 H         -4.6296939983       -0.8406305052       -1.9187141388
 O          5.4495546215       -1.2290512246       -4.4088051837
 H          4.7188751853       -0.7990393222       -3.9047410394
 H          6.1104043328       -1.4540072330       -3.7289170524
 O         -2.9072999637       -1.6099968195        3.7657423624
 H         -2.5735296695       -1.5750078425        2.8643679055
 H         -3.7292659841       -2.1271485415        3.7052130963
 O          1.8491279696        4.1592526857       -0.3877085545
 H          1.9674215345        4.6019471309        0.4656751568
 H          2.6366624535        4.3742370165       -0.9300183186
 O         -5.6652074220       -5.1173833999        0.9316353590
 H         -5.5574801940       -4.1343204170        0.8711085632
 H         -4.7781259796       -5.4953731740        0.7867045012
 O          0.4867872397        3.0730684346       -6.9074483195
 H          0.1981455353        3.9626658234       -6.6603411067
 H          1.4554676308        3.1215428137       -6.9780436452
 O         -4.9198176637        2.9573530378        3.5355503100
 H         -4.2502368670        2.2730634233        3.7250591447
 H         -5.0809406401        2.9336840706        2.5738010197
 O          2.8648003262        2.2203490295       -4.0483190274
 H          3.8396977302        2.1352982063       -3.9523988976
 H          2.7336065818        2.7168951008       -4.8738256421
 O          2.2761745025       -4.0867331459        2.8365772545
 H          2.3130350819       -3.1146521185        2.7738577153
 H          1.6275998851       -4.3264503743        3.5181271707
 O          0.2534001032        6.7721007409        3.4656698699
 H         -0.5268108471        6.5903081099        4.0151823664
 H          0.2250331966        6.0912620582        2.7747090922
 O         -2.7681961238        6.6669238736       -2.7538128072
 H         -3.1527778353        7.3673332527       -2.2210729121
 H         -2.4645697683        5.9927385203       -2.0963931747
 O          4.8438244079       -4.9495967154        5.8645834748
 H          4.6653038371       -5.4803321460        5.0758019131
 H          5.5408387145       -4.3275961916        5.6086705775
 O          2.2391233109       -7.1600093536       -1.6629006053
 H          1.7151216148       -7.3541893201       -2.4629727226
 H          1.8231895822       -7.5808671466       -0.9012890344
 O         -3.7949724449        3.5379155188       -2.7328149595
 H         -4.4010685100        4.2630465385       -2.9836923989
 H         -3.0783345169        3.5081602848       -3.3992332434
 O          3.2016662627       -4.6548110263        0.4319793397
 H          2.7002875418       -4.5065829243       -0.4015067021
 H          2.6127258805       -4.5238199939        1.1944701241
 O          9.1892589592       -3.8806713087        2.5543057947
 H          8.5207227569       -3.1832782530        2.3733216629
 H          8.6759518443       -4.6841974105        2.6876989430
 O          0.1813681702        1.7086716430       -4.5415001150
 H          0.0984617685        0.7418914957       -4.6330799808
 H          0.5063667859        2.0477968733       -5.3881259440
 O         -2.7797361584       -0.4548989756        8.0191341416
 H         -2.6921782219       -1.2686185953        7.4981338027
 H         -1.9080716060       -0.0306847835        7.9849743452
 O          2.4630920005        5.5103188079        1.9245404107
 H          2.1498677976        6.4139843710        1.7127866651
 H          3.2328048071        5.6211004230        2.5168482327
 O          5.4882985991       -3.9070275960       -4.9112231135
 H          6.4057536999       -4.0949585405       -4.6914223503
 H          5.3712335086       -2.9467292926       -4.7714503170
 O         -2.4116048004       -3.3206734187       -6.1371742870
 H         -3.2411616444       -3.6039007733       -6.5378627016
 H         -2.5242851554       -2.3622342668       -5.9266571445
 O         -3.1631453396       -3.9783948175       -1.3761848247
 H         -4.1070925007       -3.7794978567       -1.5274454661
 H         -3.1300309657       -4.8180538690       -0.8901073216
 O         -2.2452518136       -4.6681267782       -3.8304777512
 H         -2.4876079920       -4.2212468640       -2.9889782314
 H         -2.3500460609       -4.0539021139       -4.5902147430
 O          4.1164640833       -7.0936541926        0.9981673266
 H          3.3577026893       -7.6671157939        0.8661437439
 H          3.8745410868       -6.2345925705        0.5908670295
 O          3.0583711925       -3.7019430054       -6.3275974533
 H          4.0053831030       -3.6004778230       -6.4555856788
 H          2.9620501461       -4.5403947150       -5.8398728905
 O         -1.7389398309       -7.3269228379        2.2932826025
 H         -1.0467501872       -6.6958687800        2.0274544501
 H         -1.4167008272       -7.7680717353        3.0803681864
 O         -1.9294561181       -5.0904559943        5.2925241459
 H         -1.9450838885       -4.7425299708        4.3752132436
 H         -2.0926568853       -4.3084764010        5.8482041119
 O          4.1167802859       -6.0022138134        3.3902068612
 H          4.1863645007       -6.4883980653        2.5316693498
 H          3.5647096659       -5.2167930557        3.1947731063
 O          6.7476618503       -3.3047248856        4.6609220284
 H          6.8534107920       -3.9857285264        3.9671718587
 H          7.5793402853       -2.7838516938        4.6638638770
 O         -5.3015406527       -3.6639326893       -6.3178597530
 H         -5.4035609515       -2.9457857461       -6.9520040332
 H         -4.8957644344       -3.2343320350       -5.5292741985
 O          1.9560203537       -4.4898919631       -1.8637830886
 H          1.0749229020       -4.0716035759       -1.8654994919
 H          1.8215384784       -5.4514379910       -1.8254502560
 O         -1.6966029322       -7.3246123247       -3.4209293476
 H         -0.8215278381       -7.5301806907       -3.7790606407
 H         -1.9214723361       -6.4447570762       -3.7675453122
 O         -1.7969335940        3.3816572873       -4.5684561154
 H         -1.0803313760        2.7075600308       -4.4365074859
 H         -2.2315546684        3.1433465326       -5.3913444318
 O          4.2046791550        0.7842001938       -7.1399135259
 H          3.7190929820        0.3222551995       -6.4262224879
 H          5.1383504120        0.6085204960       -6.9860752522
 O         -2.0650213818       -1.6888761451       -2.9054699065
 H         -2.7476448669       -2.0416346534       -3.5068043687
 H         -2.5914797634       -1.3343787622       -2.1592549945
 O         -4.3497749168        2.7952756555       -5.6614514066
 H         -4.2385818714        3.7303759039       -5.4339709177
 H         -4.0102714912        2.2564445895       -4.9132359737
 O         -5.5081367748       -0.4461816254       -3.3559915855
 H         -6.4339595369       -0.1678227383       -3.2034634317
 H         -4.9649395225        0.3442085586       -3.5095696344
 O          8.7155395658        1.6155048136       -0.8699002197
 H          8.0784973611        1.2840467238       -1.5364514676
 H          8.3007219586        1.3372331910       -0.0234955946
 O          5.4439812808       -0.6106529920       -0.3145353630
 H          4.7061295485       -0.0088949130       -0.0730180502
 H          5.2293935633       -1.4514539323        0.1303268684
 O          2.0088803879        1.7153893849       -1.5616107200
 H          2.2977217244        1.9424657226       -2.4635541715
 H          1.8948381337        2.5522240373       -1.0825866900
 O          4.8685728883        4.9114496228       -5.1631155963
 H          5.6875732196        4.4938329650       -5.4543498719
 H          5.1046113470        5.4474985182       -4.3897551459
 O          2.3846048966        6.4794999402        5.1617879256
 H          1.6473578051        6.6787538272        4.5522168135
 H          2.0990694424        5.7058049694        5.6724536552
 O         -7.4491633058       -1.3742148318        1.7337836840
 H         -8.1519574967       -2.0526226164        1.7607118977
 H         -7.8227064145       -0.6252919721        1.2339442691
 O          4.3315219282       -3.0756543831       -1.9676630234
 H          4.3895860445       -4.0467137357       -1.8868693823
 H          3.7831751370       -2.9017437434       -2.7634413284
 O          2.5499619650       -0.1422563732       -5.2258572493
 H          2.5877834613       -0.9054104944       -4.6250619250
 H          2.5479159364        0.6622528411       -4.6634727664
 O         -3.3313185700        1.0616448764       -3.8339673331
 H         -2.5822659298        1.1711542468       -3.2155301181
 H         -3.0609648987        0.3538711701       -4.4532221000
 O          8.4518018507        4.5520328628        1.6776461658
 H          9.0148863534        4.5775243465        0.8899749570
 H          8.8519835736        3.9260106132        2.3003563239
 O         -4.4457853478        5.2276868346        4.8679638565
 H         -3.4915539568        5.4247642446        4.8090394437
 H         -4.5958280404        4.4296911855        4.3189604401
 O         -3.7877864501        1.3220236295       -7.9648317682
 H         -2.8330695614        1.1848094855       -7.8893046964
 H         -4.0395497468        1.9202807589       -7.2439130131
 O         -3.1246331207        7.4996179865       -0.0900261165
 H         -2.1650913843        7.3042388103       -0.0844604657
 H         -3.3674118678        7.7321329880        0.8098389655
 O         -3.6644757186        3.6470964520        7.0036824811
 H         -4.1232000463        2.7967470212        6.9905066518
 H         -4.1074919861        4.2291048229        6.3592911470
 O         -5.2747976951       -2.5135826696        0.6832998850
 H         -4.5168970235       -2.4043313137        1.2785537677
 H         -6.0445813575       -2.0625286262        1.0961085563
 O         -0.4419984902        6.9035262028       -0.1612994855
 H         -0.3769571085        6.0838768388        0.3800565418
 H          0.0372831052        6.7200235612       -0.9874510210
 O          0.2577858227       -2.9397128979       -6.3353546981
 H         -0.6501732023       -3.1153078910       -6.6188338965
 H          0.6981074601       -2.3775382918       -6.9887969117
 O          6.3965915913        6.3897679257        1.9246076066
 H          5.8317011985        6.2825134959        2.7085280190
 H          7.1466752901        5.7826989848        2.0260225124
 O          6.3668302480        2.5324595097        2.8993702366
 H          7.3268752679        2.6675735786        3.0022570406
 H          5.9763039544        2.7720631096        3.7596111235
 O          3.7377778850        4.2449875431       -2.2124843285
 H          3.2399876459        4.1479235363       -3.0338381395
 H          4.3767626535        4.9768754007       -2.3497037805
 O         11.2154023209       -1.0417643623        0.9502210431
 H         11.0650474928       -1.9710442920        0.7446510067
 H         11.1911474577       -0.5809750659        0.0986436460
 O         -7.6053353046        2.9531223950       -0.3607859925
 H         -8.0811542151        2.1371852568       -0.0967245833
 H         -6.8089471886        3.0120153798        0.2123152841
 O         -8.2394840152        5.2307192058       -2.9877299967
 H         -8.4842451890        4.2917527084       -3.0967990201
 H         -8.5040542566        5.4470560140       -2.0743044516
 O          5.4783529888        2.1344168023       -3.9620950145
 H          5.7811393644        2.9037737277       -3.4141769913
 H          5.8347343120        2.3166294218       -4.8486078385
 O         -7.2740667738       -0.5567717283       -5.8778934816
 H         -7.1213483603        0.3421851793       -5.5025525000
 H         -7.1756983241       -1.1999721060       -5.1557225684
 O          4.4522121126        5.6777035592        3.7341485025
 H          4.7435054467        4.8844866116        4.2124502068
 H          3.7889611933        6.1057751438        4.3276107508
 O          4.5235626570       -2.1604620279        3.7320455864
 H          5.3361668637       -2.5051205051        4.1576351219
 H          4.5976239837       -1.1914693129        3.6511448247
 O          3.7780518209       -1.9506770494        7.9168074436
 H          4.5866812477       -1.8146217696        7.3972441008
 H          3.4384426602       -2.8231472634        7.6902481080
 O         -5.7190529469       -3.5334621979       -2.1362372805
 H         -6.1351095140       -4.3959866660       -1.9322497168
 H         -6.2208945103       -2.8378147948       -1.6370218695
 O          3.3401402362        2.1084423864        6.3676802178
 H          2.6539541381        2.8041557666        6.4156407992
 H          2.8657697220        1.2528643494        6.4492169856
 O         -6.2523532618       -1.0810731387        6.2942261583
 H         -5.7280035587       -1.9172843838        6.3690668700
 H         -7.1731984793       -1.3648593903        6.2648591416
 O         -5.9850554297        0.3506397629       -0.1524730796
 H         -6.0486399445        0.9454478130       -0.9159871343
 H         -6.4104271340        0.7938042885        0.6103044887
 O         -1.0897550489        0.8310202727       -7.2282369265
 H         -0.6615959610        1.7001587115       -7.1771431760
 H         -0.3482002397        0.2187689293       -7.3986089106
 O         -3.3550151028       -6.2344858988        0.1226589280
 H         -2.8459677218       -6.7932533840        0.7161395360
 H         -3.6675054829       -6.7877776152       -0.6286464341
 O          2.1308428852       -0.2244374602        6.8108533417
 H          2.7562097166       -0.7322519266        7.3745114837
 H          2.1000213479       -0.7348775134        5.9687905440
 O         -0.3937361207        0.6731664231        7.2941168238
 H          0.5500663176        0.5464362297        7.4534004802
 H         -0.5233482359        0.3903026176        6.3590574148
 O          6.0252743356       -1.2879462423        6.4589742818
 H          6.6682415240       -1.9780076966        6.6277586255
 H          6.2304170115       -0.9608844380        5.5532107883
 O         -0.0842106864       -2.1559614974        3.4990838475
 H          0.7047720456       -2.2407614952        4.0689263454
 H         -0.6305362714       -2.9574055383        3.5636004670
 O         -0.6687855867       -6.0387282799       -1.2614179634
 H         -0.7579850186       -5.1072972461       -1.5374074209
 H         -1.1045199745       -6.5848878370       -1.9350703618
 O          6.5747767312        3.4416463481       -0.0027354411
 H          7.2246733764        3.7205583398        0.6606173065
 H          5.8657023919        4.1186981050        0.0169370641
 O          3.3107480239       -5.5250192317       -4.3299262262
 H          4.2019170948       -5.1483069394       -4.4022850499
 H          2.9055487489       -5.1034166815       -3.5586248987
 O          3.1567525130        3.1778467597       -6.5704917091
 H          3.8392826286        3.8177385482       -6.3336882092
 H          3.6100152737        2.3626091885       -6.8813749090
 O         -1.1079903665        3.1259512195        6.5048686649
 H         -2.0290125186        3.3422062413        6.7731287653
 H         -0.8943658184        2.2791858970        6.9418475843
 O         -8.8983724323       -3.8795444026       -0.8938843672
 H         -8.3097100081       -3.0957891110       -0.8789896747
 H         -8.3343573459       -4.6475934584       -1.0522859185
 O          1.7687067048       -7.4358661808        3.7320856482
 H          2.6695833752       -7.0745046935        3.8105037176
 H          1.6961855038       -7.7333325766        2.8151981339
 O         -2.1942403881       -2.5303723320        6.2145703538
 H         -2.2687663518       -2.1099891324        5.3354412026
 H         -1.2719348424       -2.4436969329        6.5268579468
 O          4.7001874275       -5.7523925144       -1.7427679814
 H          3.9353453981       -6.3441214203       -1.7279811717
 H          5.3650658358       -6.1561236487       -2.3356594501
 O          7.2586410573        0.6717703281        1.1259467809
 H          6.7669983057        1.3301019649        1.6356101726
 H          6.6128957943        0.1698599282        0.5787507370
 O        -10.3136388026        0.8728294526        2.4364408781
 H         -9.6406821977        0.6473113854        3.1132550775
 H        -10.4582781982        1.8274196708        2.5236282592
 O         -2.9429579805        4.9390886410        1.5781897342
 H         -3.1382159863        4.0079167152        1.8091048753
 H         -2.8188366956        4.9536258659        0.6133091448
 O         -6.8734851521       -5.7661487548       -1.2783569265
 H         -6.5495828452       -6.6161759127       -1.5777261319
 H         -6.4816236441       -5.6093049064       -0.3769086137
 O         -7.3007803215       -1.7345423137       -1.1284637822
 H         -7.7533887121       -1.2102183926       -1.8135394847
 H         -6.8160542504       -1.0531977730       -0.6087970525
 O         -4.9539416225       -0.9675680383       -7.1512505381
 H         -5.8322630549       -0.7680112320       -6.7570626515
 H         -4.7081881282       -0.1821757431       -7.6760480921
 O         -6.0986990268        2.0907424204       -2.3442701522
 H         -6.7379040236        2.5967819804       -1.8001471439
 H         -5.2901681918        2.6184707670       -2.4167818315
 O          6.9650831308        0.5006206506       -2.5400598807
 H          6.4772178088        0.0394952574       -1.8387942824
 H          6.2915270456        1.0312192365       -3.0312858601
 O         -8.9392928233        2.6213036331       -3.1896053042
 H         -9.8284894148        2.4046284199       -2.8479106653
 H         -8.9115055681        2.4035595974       -4.1257534148
 O         -3.6040101678        5.4948266868       -5.0933829648
 H         -3.2964323799        5.9029097159       -4.2610037413
 H         -3.0257205479        5.8306776243       -5.7787641380
 O         -5.6694399968        5.3806204862       -3.1885310555
 H         -6.6657740620        5.3139376674       -3.1360832980
 H         -5.4625478696        5.8163853388       -4.0171444856
 O         -4.8449974976       -5.5555516225       -4.0129267398
 H         -3.9144036575       -5.2684855943       -4.0363942614
 H         -5.2007625154       -5.3908907728       -4.8882759986
 O          0.2600066426       -2.3894570394        7.2174195991
 H          0.8910563299       -3.1096470328        7.3027638318
 H          0.7637097148       -1.5658043398        7.2434029623
 O          6.7530076563       -0.2178376825        4.0939018471
 H          7.3819865489        0.4011952148        4.5009726700
 H          6.0271302220        0.3220100629        3.7364597430
 O          6.3994623992       -4.7768579952        0.1108431635
 H          5.7354253436       -5.2593976141       -0.4184053083
 H          5.9927200719       -3.9232791730        0.3191120033
 O          9.0511427583        2.5324311129        3.4023859193
 H          8.8715227127        2.4075063392        4.3432222879
 H          9.3200567925        1.6427195916        3.0777350659
 O          7.3053071537       -2.0179175071        2.0940428759
 H          6.4367716426       -2.3703369626        1.8528942474
 H          7.1724506893       -1.3749897118        2.8153225009
 O          0.9901956825       -7.0961777095       -4.0652286958
 H          0.8329447913       -6.1191568436       -4.0808666932
 H          1.8123646282       -7.1993534423       -4.5510774425
 O          6.7385696156       -5.2494385997        2.7752619160
 H          5.9066414724       -5.6506333199        3.0706282406
 H          6.6559316100       -5.1748027128        1.8053318322
 O         -7.2529089034       -2.8749127371       -4.3390341628
 H         -6.9006418358       -3.3628727430       -5.0942311328
 H         -6.7092409421       -3.1245555619       -3.5680415678
 O         -7.6316161894        4.0352882566        2.7157241793
 H         -7.2769409991        4.7965217046        2.1886607570
 H         -7.2649993685        4.1019016230        3.6003320556
 O         -8.7562335695        0.6017573206        0.2884036257
 H         -9.3591531207        0.7656188355        1.0431480605
 H         -9.2887261689        0.1313278448       -0.3795410557
 O         -9.3789369527       -3.2338346343        1.6955897018
 H         -9.3009945887       -3.6320951852        0.8088873807
 H        -10.1619369653       -2.6392940040        1.6322551764
 O          0.7159982112       -5.1846842767        4.7880210957
 H         -0.2168016790       -5.2327750632        5.0817135816
 H          0.9730225462       -6.0755795096        4.4857878952
 O          2.4150996885       -4.1870849561        6.6210092661
 H          3.3125155656       -4.5344825051        6.4196112301
 H          1.7999165073       -4.7093719169        6.0672999082
 O         -4.1866113677       -7.4173439843       -2.1114813034
 H         -4.5784253929       -6.7847612170       -2.7391811643
 H         -3.3664900589       -7.6999048222       -2.5368910935
 O         -4.8224336628       -3.5253249650        3.4265292868
 H         -4.5370392025       -4.4520869864        3.3599113292
 H         -5.7959043300       -3.5158999351        3.3756499802
 O          1.4534869988        3.9981356899        6.0275602820
 H          0.5512872201        3.7734451706        6.3105683021
 H          1.4761647150        3.8295919153        5.0609357299
 O         -4.5492892321        6.8474398994        2.6358824814
 H         -3.9578861957        6.1803625415        2.2323088525
 H         -4.6524778021        6.5422654751        3.5518377476
 O          0.4660372089       -4.4841452504       -4.1566906325
 H         -0.4803610618       -4.4874191954       -3.9355904063
 H          0.5363602840       -4.0808330890       -5.0364939082
 O         -8.0889154531        0.0740000698       -2.8917679614
 H         -8.1983906261        1.0103665405       -2.6617150208
 H         -8.7587509525       -0.0966790734       -3.5868826270
 O        -10.2511217757        3.5943666540        2.5367161707
 H        -10.6489889463        4.2182168955        3.1423521905
 H         -9.2780878937        3.7525632754        2.5637704122
 O          2.1676114663       -2.1111176881        4.9736868085
 H          2.2360788178       -2.8577140846        5.6047963666
 H          3.0015318855       -2.1231660675        4.4624070029
 O          4.3429622093        0.5011370723        3.2518396030
 H          4.0831337040        0.4563819967        2.3219142076
 H          3.5216050086        0.6781011896        3.7374456184
 O         -2.7473592297       -0.7239518044       -5.7195119341
 H         -2.1281766417       -0.1923247875       -6.2525889374
 H         -3.5964650406       -0.7692227341       -6.2230455675
 O         -6.8659903385        1.4705958090        2.0844601678
 H         -7.2931694390        0.9183190865        2.7530523310
 H         -7.1571289980        2.3772094494        2.2552720996
 O          8.3691554053       -1.6186934294       -0.3652936626
 H          9.0751381239       -2.2855909671       -0.2882622577
 H          7.9513215640       -1.5952742594        0.5104775464
 O         10.2492190849       -2.3984218399       -2.5978881445
 H         10.4678317430       -1.5396251911       -2.1784186646
 H         10.3764503773       -3.0413339968       -1.8942842201
 O          9.0871517360       -1.9321820793        4.5853232844
 H          9.5607665650       -2.6500482322        4.1476616594
 H          9.1666534470       -1.1775248475        3.9682995944
 O          0.0877395222       -5.6100827763        1.1690706875
 H         -0.2956686341       -5.7805803260        0.2777852466
 H          0.4068177881       -4.6707809692        1.1038570114
 O          1.3498210406       -7.9063410754        0.9336739359
 H          0.5946385485       -8.4917636452        0.8697070035
 H          0.9880029012       -6.9907294857        1.0327758941
 O          6.8409160118        0.2524324043       -6.1109170571
 H          6.2547637907       -0.2450115900       -5.4915961972
 H          7.7134346674       -0.1019730700       -5.9199712502
 O          5.8599968006        1.3399105924        7.2685893300
 H          5.8297218983        0.3706110501        7.2197496903
 H          4.9509005842        1.6341589001        7.0970912331
 O          1.2590639096        6.5581306019       -2.2716417710
 H          1.6110281469        5.9399594794       -2.9357255737
 H          2.0383377897        6.9151727142       -1.7965330890
 O          5.2065799984        6.3997402641       -2.7536007817
 H          4.6675702104        7.0552191863       -2.2963141946
 H          6.0307943283        6.3234755262       -2.2347105577
 O         -6.7411800438        6.0933306283        1.3336808004
 H         -6.0710762134        6.5229141496        1.9101676047
 H         -6.2120105969        5.8457607559        0.5487089646
 O          8.0418394154        1.5122811592        5.7640981951
 H          7.2371161923        1.5509657873        6.3351134961
 H          8.6823748324        0.9857074681        6.2433100284
 O          8.6999278050       -0.8117413060       -4.1734644127
 H          8.0467277269       -0.4296195905       -3.5519439628
 H          9.1299146717       -1.5219153179       -3.6697834995
 O         10.1735831417       -3.6221989571        0.0659820936
 H          9.9722855759       -3.7763363762        1.0121193743
 H          9.7496834165       -4.3826161385       -0.3905012229
 O         -1.7454894320        5.5483849201        4.8357315642
 H         -1.5270693871        4.7032427151        4.3696542193
 H         -1.5413739932        5.3915941481        5.7600941537
 O          1.1979589120       -0.6202832115       -7.4445505903
 H          1.6211036027       -0.4405003475       -6.5688571399
 H          1.8553119767       -0.3639779423       -8.0918903509
 O         -6.8328106255        2.2699508025        5.2926943977
 H         -6.1748051722        2.4693006696        4.5914329901
 H         -6.3147781217        1.9784759047        6.0467468719
 O          6.7188785923        4.0151360128       -2.6542526316
 H          6.7707725574        3.8289503632       -1.6972890670
 H          7.6084205675        3.9256402870       -3.0060974274
 O          6.8195036923       -6.6637361454       -3.1148287695
 H          7.2034559748       -5.8941615121       -3.5561207654
 H          7.4408393172       -6.8955895946       -2.4164648992
 O          8.0883202316       -4.1753914087       -3.6441078092
 H          7.6139948513       -3.4467037208       -3.1449335811
 H          8.9466034650       -3.8093279726       -3.8686620148
 O         -0.2768623542        5.3643564111       -5.5483306316
 H         -0.8783516942        4.7626872917       -5.0619136104
 H         -0.3856855152        6.2507564281       -5.1215031267
 O          2.0348462756        4.9142876819       -4.3266485497
 H          1.2535235338        5.0890150678       -4.8996483837
 H          2.8200085936        5.1540116148       -4.8288588523
 O          8.7211436036        2.5972611727       -3.9414153638
 H          8.1776529684        1.8919272825       -3.5686284290
 H          9.5870861541        2.1942383796       -4.0992371189
 O         -6.8428784857        1.9012439053       -4.9571638703
 H         -6.6571767085        1.9813798007       -3.9999547675
 H         -6.0716147801        2.2797197603       -5.4062681176
 O         -4.8459209129       -3.2971500495        6.1564908330
 H         -3.9350062853       -3.0867951676        6.3952544434
 H         -4.8499190046       -3.4045658992        5.1845812896
 O         -8.6117009939       -2.0934880390        5.3290683901
 H         -9.5237995102       -2.3780997019        5.3756399442
 H         -8.1488393859       -2.7452592145        4.7521388405
 O        -11.0937335297        3.7370693156       -0.1109904623
 H        -10.9180763938        3.5262609681        0.8187216343
 H        -10.4212644405        4.4037951896       -0.3337869372
 O         -9.7518455443       -2.5841564444       -3.1770453040
 H         -9.7032413546       -3.1847527929       -2.4139521502
 H         -8.8950421497       -2.6835283788       -3.6259896175
 O         -4.6051383434        0.9902823047        6.7889579029
 H         -3.9348253915        0.5477737730        7.3644417475
 H         -5.2774058774        0.2958057599        6.6627663055
 O         -7.5285050143       -3.8207994720        3.6108777369
 H         -8.2029085176       -3.6998021349        2.9206673956
 H         -7.3621329014       -4.7879643296        3.6456189620
 O          1.5487510754        7.9542097159        1.2915286737
 H          1.1751676328        8.1175208400        2.1643365849
 H          0.7812941788        7.7230838596        0.7199252742
 O          7.3396883712        6.3732279016       -1.0087279364
 H          7.1177258935        6.5914182941       -0.0991611258
 H          7.9786879805        5.6476987838       -0.9811256555
 O          3.9838803372        3.1196888083        1.7565973143
 H          4.8742136893        2.9504519040        2.1133648395
 H          3.3780007004        3.2020658541        2.4977429961
 O          3.3521558653        7.3642625893       -0.8244295035
 H          3.7943084271        6.5791837640       -0.4328491172
 H          2.9286780974        7.8276169615       -0.0929292032
 O         -6.6787995544       -6.2992257539        3.1896949666
 H         -5.8310455625       -6.4569920511        3.6244686606
 H         -6.4370404335       -5.9796550120        2.3020634155
 O          5.2347191731        3.4331892700        5.1324438326
 H          4.4828527615        2.9017408594        5.4804204795
 H          5.8348300747        3.5487614031        5.8702135845
 O          6.9597596378        2.9959790949       -6.0314591356
 H          6.9869816402        2.0885676651       -6.3764487694
 H          7.7061425286        3.0532151285       -5.4095221950
 O         -9.8351906036       -0.3148410435       -4.8755681094
 H        -10.1584449840       -1.1844116172       -4.6158325159
 H         -9.1296022446       -0.4535718222       -5.5313121757
 O        -11.2683370130        1.9434783428       -2.0202312680
 H        -11.1854857606        2.5565034384       -1.2414815046
 H        -12.1162985753        2.1381426601       -2.4178954884
 O        -11.2754080769       -1.4398469066        1.2274826805
 H        -11.0883517944       -0.6275128400        1.7211940750
 H        -11.1139686511       -1.2280862882        0.2937815134
 O         -8.3281676244        0.3662744835        4.1305545253
 H         -8.3943559937       -0.4733622595        4.6130931790
 H         -7.8757042722        1.0235441788        4.6989605838
 O          9.2761666646        4.2213030908       -0.9204516274
 H          9.0288926560        3.2639836006       -0.9141314948
 H         10.0166282070        4.3063047581       -1.5189288429
 O          9.4021766975       -0.0001424838        2.6417137166
 H          8.6224233155        0.0667462361        2.0573740605
 H         10.1245031496       -0.3504249967        2.0788136437
 O         -8.8422290791        5.2830879027       -0.3457897711
 H         -8.3901445009        4.4052689383       -0.3214540261
 H         -8.3600088572        5.8305006290        0.2844096581
 O        -10.4965355950       -0.6342732518       -1.3377695780
 H        -10.8648124199        0.1755062456       -1.7228014026
 H        -10.2787817024       -1.2456414833       -2.0624748047
 O          8.6677314401       -5.3958417489       -1.2297961850
 H          7.8694691787       -5.1982560713       -0.7033246791
 H          8.5249785931       -4.9733443302       -2.0950920260
 O         10.7624028135        0.8244937114       -4.2433315995
 H         10.0099304109        0.1724384476       -4.2810285289
 H         11.4094559265        0.5376115891       -4.8854799777
 O         -0.5484502246        7.5196081391       -4.0737477052
 H         -1.3771223090        7.3240457301       -3.6003050277
 H          0.1558813035        7.3716994859       -3.4173132398
 O         10.7858195092        0.0645271611       -1.5627155150
 H         11.0331822102        0.4748904243       -2.4026151691
 H         10.0063939549        0.5725632651       -1.2427288916
 O         -0.6690836464        2.2744337314        0.3439315647
 H         -0.1429581499        1.5187318960        0.6146223527
 H         -1.0405217767        2.0092341671       -0.5247438146
 O         -1.1757548595       -0.4130720876        1.2556140847
 H         -2.0279303953        0.0081300530        1.4290201809
 H         -0.7264392110       -0.5898247124        2.0859994092
 O        -13.0730654914        0.8283819950        0.1745121983
 H        -12.8562139769       -0.0148845747        0.5831376112
 H        -12.4512665458        1.4757440641        0.5128919503
