  459
       -779.20138302
 O         -4.9916644040        3.4814634100        4.1827355167
 H         -5.6509491116        2.8128064014        4.4079457498
 H         -4.2260191486        2.9773000365        3.8308598315
 O         -3.9255954656       -2.8150042607        6.0773015654
 H         -4.7497711039       -3.1836800613        5.7410301088
 H         -3.2106540491       -3.2428435066        5.5727776228
 O          0.8629523372       -0.2824600562       -4.8765891465
 H          0.0100683908        0.1548580544       -5.0784025572
 H          0.6218575802       -0.9567151697       -4.2077763101
 O         -3.9803446318       -5.1395362741        3.2603043830
 H         -3.5823176417       -5.6870522229        2.5420548172
 H         -3.3041556900       -5.1064312055        3.9549635941
 O          1.8352538593        2.5213094318        4.0144109955
 H          0.9896394718        2.3562512880        3.5396690138
 H          1.5637197129        2.9143118159        4.8582427233
 O         -0.3982852316        1.9745701005        2.7705489152
 H         -1.3312003129        2.0194865004        3.0682653390
 H         -0.2999420351        2.6076881033        2.0347648108
 O          4.6285426000        6.1822436364       -1.6844488366
 H          5.3617780360        6.1557716078       -1.0595211673
 H          3.8318531977        5.9264226239       -1.1695349750
 O         -2.1414461999       -0.8860191873        4.3700970978
 H         -2.5141046625       -1.4960115795        3.7115408597
 H         -1.2600797003       -0.6351398733        4.0479126520
 O          0.4838770782       -0.2040809128        4.0227092479
 H          0.2355878301        0.4822350880        3.3777643213
 H          0.4758496842        0.2218445702        4.8995721908
 O         -3.0534771355        4.1586089797        6.0728580798
 H         -2.3444812585        4.5428584117        5.5364111507
 H         -3.8292870478        4.1045614391        5.4883473127
 O         -3.2977522735       -2.8367273217       -0.7961510444
 H         -2.6517334860       -3.2595864054       -0.2008156474
 H         -2.8929500542       -2.8857760713       -1.6755872306
 O         -0.0375753794        1.9805472389       -3.2364555853
 H          0.0540046492        2.2751325350       -4.1524703727
 H         -0.7943989316        1.3754100810       -3.2074907674
 O          0.6649087493        6.0575591953        2.4261836861
 H          1.6509006206        6.0173500533        2.4596034359
 H          0.4561964156        6.7015715273        1.7422047473
 O          2.5136065421       -1.8384532427        3.2944750820
 H          1.7745962750       -1.2643847221        3.5615134279
 H          2.6462161589       -1.6790275173        2.3436861507
 O          2.8158028683        1.4349379974       -4.2789749081
 H          2.0300703479        0.8613929400       -4.3935086479
 H          3.2908343064        1.1249343542       -3.4818519790
 O         -0.0640456181        4.1002513069       -1.6095818895
 H         -0.0869926893        3.2608547032       -2.1119072757
 H          0.4509336123        4.7230846496       -2.1540109949
 O         -1.8409352278       -3.7831659997       -2.8911253133
 H         -1.7219918536       -4.3087136268       -3.6990555122
 H         -1.1002790170       -3.1428244060       -2.8769705286
 O          2.8399405845        4.0334926201       -4.9257074207
 H          3.7310622181        4.2521870754       -4.5998109892
 H          2.7621590084        3.0729251444       -4.7740501562
 O         -4.4440399143       -0.0971678537        2.8355759138
 H         -5.3131054054        0.2354306898        2.5759740740
 H         -4.4964500080       -0.2798177293        3.7985403071
 O         -1.0162529140        4.9493462545       -4.3879487642
 H         -0.5161651296        5.6494843012       -3.9439605736
 H         -0.3903168736        4.3682437419       -4.8488369906
 O         -0.9031838423        4.7747902408        4.3479282283
 H         -0.2982885605        5.3855608092        3.9031057253
 H         -1.4586826413        4.4474599087        3.6072549765
 O         -1.7227151204        0.0412446906       -2.2204740884
 H         -2.5857724187       -0.3273862320       -2.4718761585
 H         -1.8685686751        0.6836678847       -1.4919463428
 O          4.7403003772        3.3042460465       -0.2082433486
 H          4.1357123866        3.2473753880       -0.9711480398
 H          4.1337110965        3.2772092077        0.5571580917
 O         -1.2930546075       -1.5805416673        6.7367855725
 H         -2.0365765497       -1.8810215700        7.2600756456
 H         -1.6861025912       -1.3383475171        5.8511807327
 O         -5.8268340103        2.6836119140       -5.0908148059
 H         -6.6698048544        2.3301700328       -4.7968054802
 H         -5.7819920204        3.6050924973       -4.7754091495
 O         -2.3709066922        4.2553856010        2.2112598100
 H         -2.8393318248        3.4127693364        2.1156501742
 H         -2.1127269773        4.5412974956        1.3079649314
 O          6.6274033359        5.1439161217        0.1646381898
 H          7.0851207977        4.8166020495        0.9533027282
 H          5.9180153230        4.4847049223        0.0056878355
 O          5.4235490448       -2.8346990577        0.8281846143
 H          5.4952487288       -2.3229276210        1.6531498387
 H          5.7177538424       -2.2527389718        0.0802718416
 O         -4.8199819442        5.4137316932        2.2066838282
 H         -5.1052970043        4.9097956655        2.9854019221
 H         -3.8734318864        5.1771449874        2.1427512470
 O         -8.3764545630       -3.5194915965        2.5216882128
 H         -9.0642475675       -3.2791132247        1.8934308179
 H         -7.7501511273       -4.0671581646        2.0268877120
 O         -1.3590350256       -5.5589543555       -4.9920275736
 H         -0.6703268075       -6.1820512267       -4.7248802082
 H         -0.9398560325       -4.9272438579       -5.5966539353
 O          0.4410339528       -4.1563741738       -1.1379216300
 H         -0.1275392687       -3.8465475231       -0.4121082567
 H          1.3643076575       -4.1214129894       -0.8229950195
 O         -7.9042616188        2.8378217718        2.7013053069
 H         -7.7105717360        2.6322639074        3.6237356223
 H         -7.3443262697        2.2019909909        2.1963429722
 O         -6.6991406692        1.2364545799        4.6508712804
 H         -6.0172444471        0.8849655199        5.2441558110
 H         -6.9728756536        0.4465618559        4.1569471823
 O         -1.0217940997        7.2682951255       -2.7698694785
 H         -1.9332022130        6.8995792632       -2.7011676626
 H         -1.1058845705        8.0992304016       -3.2335874793
 O          2.9669054721       -1.7820615579        0.6726554531
 H          3.2427368486       -0.8419530007        0.5864780348
 H          3.7998300337       -2.2875082153        0.6193993741
 O          2.4425405257        5.3595857864       -0.3961637447
 H          2.2904334485        4.5001641467       -0.8348833376
 H          1.5980462811        5.8516576869       -0.4003302079
 O          0.1335093917        0.7791961654        6.5516714088
 H         -0.3026827551       -0.0517830203        6.8102939216
 H          1.0093808948        0.7714525172        7.0107563021
 O          3.9267764957        0.6579186356        0.5748818793
 H          3.2818300070        1.3691486858        0.7562232063
 H          4.6502297215        0.8567560425        1.1946826135
 O          6.9063179647        3.4559904313        4.7881471454
 H          7.3514207640        3.7207543884        3.9636412709
 H          7.0196047756        2.4921639775        4.8236068808
 O         -8.9940175840        3.2022137540       -2.8069145917
 H         -9.4057544139        2.7245446921       -2.0711559471
 H         -8.6316066066        2.5128244993       -3.3832809137
 O          4.4469094220        3.7853219665        3.6803257133
 H          5.3129121769        3.8561003277        4.1280810711
 H          3.7811828750        3.8962945612        4.3739322796
 O          0.3577295245        3.7798803335        0.9966622207
 H          0.3642643332        4.6428291787        1.4573923252
 H          0.1763342632        3.9173366540        0.0451210240
 O          5.6992951666       -1.5886975746        5.5802788347
 H          6.0649605522       -2.4744962276        5.6172110943
 H          4.7596958991       -1.6424201697        5.8556030163
 O          7.6816917563        3.4839707228        2.1582691898
 H          6.9153571384        2.8765586222        2.0775923972
 H          8.4599793491        2.9288584627        2.0060380394
 O         -3.2388064745        4.4391560968       -5.9235801900
 H         -4.0745357192        4.6591238101       -5.5038931499
 H         -2.5322577229        4.7905922449       -5.3591406746
 O         -6.0971009021       -3.7296169605        4.4545402932
 H         -6.9633851725       -3.9790331948        4.1166474999
 H         -5.4488797409       -4.2781519073        3.9873518689
 O         -2.5774287439        1.5655524463        6.2575687803
 H         -2.7395495725        2.5341467526        6.3629128125
 H         -1.6484995066        1.3944717252        6.4508800565
 O          3.0684808321       -1.4767948210        6.0012906974
 H          2.3071848056       -2.0699691764        5.8455607284
 H          3.0883198830       -0.8612411824        5.2368899099
 O         -2.8410920645       -6.4944897227        1.3042035220
 H         -1.9240996111       -6.5246787620        1.6153509223
 H         -2.8028980743       -6.1788110876        0.3882614484
 O         -4.5734530277       -0.2158687092        5.5430985349
 H         -4.3225768394       -1.1249755733        5.7889380396
 H         -3.8537122993        0.3507279488        5.8636864385
 O         -2.0482615541        2.0717772164       -0.4959205408
 H         -2.7695202114        2.1320146115        0.1469261123
 H         -2.2274031127        2.7148724641       -1.2036253838
 O          6.3843174554       -5.1684372115        0.1615470070
 H          6.0527623456       -4.2640767378        0.3964616586
 H          7.1087042445       -5.3263806770        0.7884010558
 O         -1.6500369517        0.5272493909       -5.1538434010
 H         -1.7675788564        1.1300717502       -5.9210110549
 H         -1.9245468941       -0.3685410295       -5.4450753482
 O         -3.1210887362       -2.6581727108        2.5002776421
 H         -3.8950672375       -2.2620928215        2.0589354949
 H         -3.4420164404       -3.5028487029        2.8565998207
 O          4.2935923937        0.0621545849       -6.1140776616
 H          3.7624568037        0.6851205845       -5.5798443069
 H          3.6638503825       -0.5734595548       -6.4903474125
 O         -6.8850894486       -1.2857397682        3.4569100168
 H         -6.5285385730       -1.9818381340        4.0316008563
 H         -7.7498983963       -1.5989757727        3.1531744828
 O         -3.4483976030       -0.2948997833        0.2466499253
 H         -3.4587683907       -1.2030444331       -0.1010300200
 H         -3.8798633659       -0.3002564616        1.1121762744
 O          5.2015794437        4.5618627645       -3.6687244907
 H          5.8593728114        5.0602506624       -4.1542669369
 H          4.9598731814        5.1339041116       -2.8912763157
 O         -5.5066905748       -2.2103489474        1.3207669396
 H         -6.0019128050       -1.7376835250        2.0211415756
 H         -5.8000945635       -3.1395177033        1.3726932930
 O         -4.6556104039        4.0479828890       -0.8569336202
 H         -4.5580761094        3.1707125739       -1.2661256774
 H         -5.4939353997        4.4041511173       -1.1966941138
 O         -2.8793729495        1.8964443745        3.6262572246
 H         -3.3262536369        1.1317595866        3.2108751830
 H         -2.7306012247        1.6493574149        4.5624451619
 O          3.1111111517        4.4361150854        6.0667388415
 H          2.1778229379        4.2052822596        6.2434292139
 H          3.2023015077        5.3762136186        6.2184849272
 O          0.0760619514        6.7569569863       -0.3005676855
 H         -0.7389399961        6.2763678276       -0.0874416900
 H         -0.0938692259        7.0725034639       -1.2030871101
 O         -6.0179676117       -1.7279980461       -1.2368955086
 H         -5.2196514639       -1.5807251769       -1.7979133588
 H         -5.7225126261       -1.8714329722       -0.3125018583
 O         -0.1420464362       -6.7056996602       -1.1770681117
 H          0.0772476979       -5.7326439610       -1.1693725146
 H          0.4824925905       -7.1062120621       -0.5654246126
 O          2.9861583320       -7.2392481627       -2.1579790324
 H          2.6865114247       -7.0875992243       -1.2534453777
 H          3.7345968037       -6.6460069801       -2.3053991847
 O          0.7275631545       -7.0263427388       -3.6874595400
 H          1.6219021862       -7.3245170597       -3.4544359537
 H          0.2632555275       -7.0324916635       -2.8234845811
 O          4.5961591709        2.1511728179        6.3617169999
 H          5.5144508782        2.4229861946        6.2930705809
 H          4.0758129249        2.9718512119        6.3224028156
 O          2.5534827013        2.9529655084       -1.6967858807
 H          2.3846231756        2.9203641317       -2.6414716876
 H          2.0941646538        2.1574297112       -1.3184368931
 O          2.5425988688        0.5948238084        7.6133505509
 H          3.2437974926        1.2031313525        7.3499490918
 H          2.7717620660       -0.2544086353        7.1819459797
 O          3.6176098784        0.5835442805        4.3030303251
 H          2.8817906239        1.1977314849        4.1025178795
 H          4.1125418428        1.0374217743        5.0040537839
 O         -0.2288307496       -6.0375863464        2.1338820027
 H          0.2216483074       -5.7353736054        2.9352012022
 H          0.4836838739       -6.3287506507        1.5444171728
 O          1.4543032173       -3.9458407338        1.5208886905
 H          1.9929763226       -3.2012167037        1.2173275860
 H          1.8817996066       -4.3214425210        2.3006142566
 O         -0.3297490765       -2.8200643630        3.1613950258
 H         -0.6070075994       -2.0152753905        2.6874493547
 H          0.2842956408       -3.2778769645        2.5515519917
 O          1.6599136423       -5.0996204627        4.1021655984
 H          2.6189931260       -4.9959884081        4.1335666864
 H          1.3251578418       -4.4207904479        4.7107662297
 O         -2.6028234029        3.6587241790       -2.6789332140
 H         -3.0542451198        2.9677469260       -3.2039844154
 H         -1.9169875329        4.0383121227       -3.2632249425
 O          3.9557963331       -5.4843880712        1.4034972696
 H          4.8472227477       -5.6064884307        1.0387497321
 H          4.0548261953       -4.9174180608        2.2045213429
 O          3.2863944900        5.8208865730        2.1773668308
 H          3.1685057770        5.5893146000        1.2400386408
 H          3.7598475102        5.0844642250        2.5946868607
 O          0.7865842752       -2.9070462017        5.5795362678
 H          0.5021466588       -2.6333040530        4.6802306259
 H          0.1294037613       -2.4991533338        6.1696100285
 O         -3.7338349941        1.5952615226       -3.9008596069
 H         -3.0144438666        1.1563216283       -4.4001805275
 H         -4.4301850681        1.9086637866       -4.5148880098
 O         -1.4329007070       -3.8953268157        0.8071843686
 H         -1.8255652359       -3.3250431067        1.4993089705
 H         -1.0116234280       -4.6329877455        1.2809720220
 O         -6.4626504896       -4.9750571656       -3.2812771982
 H         -5.9473599698       -4.8573877677       -2.4534256759
 H         -5.9423595357       -5.5935378197       -3.8032532771
 O          1.9663590504       -7.0848170194        0.6569613855
 H          2.6497117449       -6.4469355906        0.9635065137
 H          2.1833417896       -7.9239733364        1.0630510697
 O          0.2127361991        2.9626038020       -5.8123745017
 H          1.0156299905        3.2159416413       -6.2699609940
 H         -0.4777538577        2.7571279825       -6.4607374249
 O         -4.2151632987        2.4945145314        1.2560538518
 H         -4.9795724096        1.9337898336        1.4014929597
 H         -4.5069703031        3.2161809920        0.6666051588
 O         -6.6569526303        0.8762628674        1.4323016867
 H         -6.7368261477        0.9021838293        0.4572445853
 H         -7.3697327923        0.2564071772        1.6992979135
 O          3.4252732955       -3.0182289113       -4.3550413556
 H          4.3226022765       -3.3506565058       -4.2129952878
 H          2.7779231826       -3.7278708416       -4.1722415786
 O          5.0413968398       -5.3105396012       -2.2385987592
 H          5.5998895181       -5.4462160594       -1.4589204099
 H          5.4804284141       -4.6304815655       -2.7788863648
 O          8.3553102273       -4.8693708164        2.0171742151
 H          8.5275924790       -3.9881219635        1.5985792908
 H          9.2016535650       -5.3082896553        2.0880961729
 O         -3.5055156796        6.2207938871       -2.6382845287
 H         -3.9315265461        6.4978661794       -1.8046158367
 H         -3.2516747899        5.2800512222       -2.5228791261
 O         -2.1805809549        2.2524397420       -7.0943221468
 H         -2.6444274154        3.0393657466       -6.7396126146
 H         -2.8845213073        1.6370079114       -7.3691968600
 O         -3.8782089786       -5.9879202923       -3.9810368643
 H         -3.5259868068       -6.1042595202       -3.0814676692
 H         -3.1045729111       -6.0585677281       -4.5590870153
 O          5.6351395615        1.7234264494        2.4027012318
 H          6.0020663411        1.2767981646        3.1876261211
 H          5.0131958228        2.3887766882        2.7511276122
 O          7.2283537964       -0.3525672610        1.2410516015
 H          6.9205050513        0.2437871167        0.5217754872
 H          6.4538571285       -0.4746705757        1.8292642134
 O          3.1020242422       -4.1358823388       -0.8133860425
 H          3.7201152979       -4.5301759817       -1.4554935079
 H          3.3443707290       -4.5121001254        0.0505552328
 O          4.1470836542       -3.9514273866        3.5638010886
 H          3.6248060209       -3.1207826111        3.5442757584
 H          5.0746645263       -3.6991379547        3.6890092450
 O         -3.9082719270        0.1238851204       -7.1243164459
 H         -4.5744386388        0.1051727456       -6.4193250895
 H         -3.3785670364       -0.6735070995       -7.0023951292
 O          2.5886652778       -1.8028050644       -2.1408990985
 H          2.8093523889       -2.4658595175       -1.4642037130
 H          2.9025055330       -2.1693389625       -2.9954773141
 O          5.2614320596       -1.0890460648        2.9118927503
 H          4.5106981918       -0.5130657550        3.1496436858
 H          5.5826019640       -1.3991122083        3.7764241432
 O         -0.0018856598       -1.8488379960       -2.9056623595
 H          0.8404658881       -1.8244086510       -2.4156261668
 H         -0.5798368640       -1.1189058558       -2.5931975461
 O        -11.0323483825       -0.6597979246       -1.6535512879
 H        -11.9412672185       -0.3844093430       -1.7654280565
 H        -10.5304735827        0.1370850380       -1.3483844009
 O         -9.1398282776       -1.4465747543       -3.5479032521
 H         -9.9532112747       -1.1633480588       -3.1064935309
 H         -8.7505485184       -2.0903910453       -2.9195421905
 O          9.3895386856        1.3749524442        1.4281193360
 H          8.5570917800        0.9023203644        1.2639774491
 H          9.6181426568        1.8456069180        0.6009761591
 O         -7.1084783224        4.8253738281       -1.7195107394
 H         -7.3455038285        4.9097892775       -0.7771308706
 H         -7.8117142390        4.2829700864       -2.1279983136
 O         -5.6030057105       -0.3687014786       -4.9338798635
 H         -6.3135690955        0.2375743338       -4.6611791070
 H         -6.0300298518       -1.2298241590       -5.0653735733
 O         -5.5686799913        5.1942463465       -4.0627410294
 H         -4.8133619572        5.6767719443       -3.6704122519
 H         -6.2349110192        5.1834047844       -3.3632787047
 O          8.6261361761       -1.1472875714        3.4713256411
 H          8.2468841320       -0.8604945919        2.6222139770
 H          9.5787410693       -1.1291799894        3.3595445114
 O         10.1542254916        2.7485319776       -0.7605239976
 H         11.0010464437        3.1693119880       -0.6120638379
 H         10.2673464453        2.1914092693       -1.5781313692
 O         -2.2575858418       -1.9300500951       -5.9805200776
 H         -1.4214014941       -2.4311977902       -5.9968874649
 H         -2.8879466953       -2.4676154695       -5.4719802984
 O         -1.8999913044       -4.2296219527        4.7817691269
 H         -1.2595792202       -4.4611191822        5.4553872517
 H         -1.4050997102       -3.6805345481        4.1272353346
 O         -4.8996441209        6.8572791564       -0.3568836651
 H         -4.7303676761        6.4878521647        0.5189931239
 H         -5.8180787804        6.6612613479       -0.5557445348
 O         -2.1532698354        5.1150080657       -0.2500306173
 H         -1.5589322285        4.6654300528       -0.8822356189
 H         -3.0605622774        4.8738503315       -0.4986249118
 O          1.4918404447        5.5949727856       -3.2412081208
 H          2.1665614121        6.1504895976       -2.8489197080
 H          1.9446400357        5.0291197880       -3.9068148363
 O         -9.8115475827       -2.4339117088        0.1177747788
 H         -9.1739090819       -2.8378508588       -0.4983934707
 H        -10.4027359621       -1.9196859091       -0.4545030039
 O         -7.7664256547        0.8873404478       -3.8033084513
 H         -7.4766442749        0.8727753881       -2.8667193843
 H         -8.3348547478        0.0968523700       -3.8827875954
 O          6.9726983112        2.6431019574       -2.8691492768
 H          6.1816316793        3.0978476696       -3.2038815355
 H          7.5530224943        3.3772685730       -2.5379247478
 O          8.1278368286        0.5455657747       -4.0344058598
 H          7.3235511581        0.0687459009       -4.3186274165
 H          7.7686117556        1.3782841764       -3.6618093326
 O          2.7565905268        2.8523226174        1.4921795273
 H          1.8853886887        3.1986365313        1.1901432399
 H          2.7063898733        2.8693322729        2.4584810317
 O         10.5894593550        1.2134458270       -2.8347332038
 H          9.8277982811        1.0250752272       -3.4018371384
 H         10.8406299343        0.3753669875       -2.4136283967
 O         -4.1209190067       -3.3403165804       -4.5542387948
 H         -4.0545978077       -4.2892304555       -4.3280161106
 H         -4.9967228146       -3.1974547884       -4.9275277825
 O          0.5843714052        3.5603940216        6.1878321591
 H         -0.0540204602        3.9859095857        5.5721405327
 H          0.2253024600        2.7038519183        6.4487846899
 O          8.4293064238       -4.0329319575       -1.4469876000
 H          7.5963559221       -4.4577911371       -1.2004487084
 H          8.2358275211       -3.3292966592       -2.0843769412
 O          6.9116380443        0.6916879623        4.6324369645
 H          6.3839804729        0.0739327714        5.1618946699
 H          7.6697705604        0.1676475749        4.3305096257
 O          6.1117559625       -1.3955086321       -1.2049792452
 H          5.9643997575       -0.4385395458       -1.1273217092
 H          6.9847165516       -1.4850763253       -1.6254279727
 O          8.6959591528       -2.5763562412        0.7476859327
 H          8.6911144162       -3.0204519954       -0.1337148004
 H          8.0094046785       -1.8818096991        0.7295910923
 O          6.8895262465       -3.3855555448        3.8329359745
 H          7.4847294149       -2.6207365328        3.7898475196
 H          7.3206902622       -4.0748413419        3.3086586893
 O          8.5374056719       -1.4857515711       -2.3422148213
 H          8.4262101903       -0.7511985980       -2.9842588818
 H          9.4275224412       -1.3840348719       -1.9699012891
 O         10.7989464014       -0.9337488629        1.2128919264
 H         10.3926010916       -0.0534035447        1.3576151452
 H         10.0630572006       -1.5728226291        1.1299253022
 O          6.4555138397        1.2967571135       -0.6498196961
 H          5.8230727758        1.9685138230       -0.3221124058
 H          6.7572792098        1.6780510197       -1.5004161300
 O         -9.6352714720        1.4159008962       -0.7903587458
 H         -9.8304792462        1.6254694405        0.1429603934
 H         -8.7010261770        1.1437238991       -0.8354438163
 O         -8.8746419451       -0.5451808001        1.7736523060
 H         -9.2070649089       -1.2237299945        1.1512181845
 H         -9.5664662566        0.1157794384        1.8797112674
 O         -5.0667060413       -4.7705729498       -1.0018506269
 H         -4.3857651441       -5.4499200939       -1.0994095159
 H         -4.5509356856       -3.9288833563       -0.9193390848
 O         -7.0400279102        0.6655417210       -1.2133943708
 H         -6.8292597156       -0.3006096374       -1.2292825824
 H         -6.1412326062        1.0825537883       -1.3672727232
 O         11.1000408557       -1.0922839860       -1.3997130968
 H         11.0875212320       -0.9828517861       -0.4119895643
 H         11.7923257856       -1.7217277726       -1.5972277106
 O        -10.2057705372        1.9255130604        1.8117246656
 H         -9.3778274003        2.3236958766        2.1884581703
 H        -10.9168181459        2.5313412129        2.0156269756
 O          2.2584322085       -1.8252004219       -6.5293043328
 H          1.7197509619       -1.1719435791       -6.0328066738
 H          2.7616069174       -2.2970834664       -5.8441958748
 O         -4.0560605181       -1.1953800772       -2.9435898978
 H         -4.5272932009       -0.6595737167       -3.6188392443
 H         -3.8927172130       -2.0362212880       -3.4079239581
 O         -8.0844601870       -3.2355972903       -1.8138306858
 H         -7.2569186963       -2.7453655990       -1.5969104806
 H         -7.8108915563       -4.0527000057       -2.2421586170
 O         -2.6515921778       -5.8946127885       -1.4745910147
 H         -2.3114856332       -5.0487065681       -1.8490502360
 H         -1.8559828376       -6.4462060664       -1.3902372161
 O         -7.2269637802        4.9402127679        0.9724701399
 H         -6.3531475628        5.1716082493        1.3351825486
 H         -7.5926621355        4.3016962178        1.5976393194
 O         -4.6350163668        1.4130651319       -1.4659685550
 H         -4.1258527604        0.8156522440       -0.8756003799
 H         -4.2680529923        1.3396587216       -2.3716964447
 O          8.3561094499        4.5887736669       -1.8079672069
 H          9.0281963517        4.0560874358       -1.3557598632
 H          7.7434436040        4.9022938840       -1.1057919088
 O          0.0585991563       -3.3811466182       -5.9085957979
 H          0.4819738720       -3.5888308776       -5.0515353220
 H          0.7453562957       -2.9143580714       -6.4156854497
 O         -6.9204572252       -2.7933663781       -4.8834527960
 H         -7.7913289525       -2.4084581305       -4.7370149027
 H         -6.8662478818       -3.5708687526       -4.2956824512
 O         -6.1869109206       -4.8278267187        1.4013902603
 H         -5.5366500868       -5.2517503179        1.9695202179
 H         -5.8752960638       -4.9457761640        0.4781938504
 O          1.2781981005       -4.4162265702       -3.7187515262
 H          1.1340454831       -5.3832547410       -3.7785806034
 H          0.9291539209       -4.1474061020       -2.8534801063
 O          6.1282647617       -3.3323257538       -3.7637813606
 H          6.0185041853       -2.3421142147       -3.7692126842
 H          6.7809396581       -3.5229539920       -4.4364595592
 O          4.1387640268        0.3790370599       -2.1933608090
 H          3.6108927226       -0.4423413300       -2.1432862963
 H          4.1503428744        0.7224296993       -1.2847345454
 O          5.7788922872       -0.7543577054       -4.1014888299
 H          5.2654733233       -0.5204048054       -4.9137696498
 H          5.3096829466       -0.3225106881       -3.3645352101
 O         -0.8657695423       -0.7890583373        1.3430290699
 H         -1.7228994215       -0.5149398293        0.9818161161
 H         -0.2079377590       -0.5738029421        0.6762525589
 O          0.7784122369        1.1954018759       -0.2387118822
 H         -0.0802795468        1.5170888096       -0.5441255945
 H          0.7969026142        1.3700771766        0.7049153502
 O          8.4836251868       -2.1030650607       -5.2957878673
 H          8.6969119131       -2.0091063236       -4.3615507562
 H          8.4777253459       -1.2147156837       -5.6593192041
