  147
       -244.15245474
 H         -2.9764572632        1.9163870213        0.2381242726
 C         -2.2114528113        1.1475008826        0.3114029020
 H         -1.3060735198        1.5015098253       -0.1819127449
 C         -2.6880888201       -0.1218898735       -0.3794224441
 H         -3.0542067513        0.1400203962       -1.3686550148
 H         -3.4907868674       -0.5979077487        0.1831245828
 O         -1.9545893885        0.9783442541        1.6959002826
 H         -1.3058089144        0.2351857858        1.8218258354
 N         -1.5676821149       -1.0631551203       -0.5135044908
 H         -1.8183204102       -1.9273236912       -1.0576507450
 H         -1.2275410624       -1.3458053288        0.4331010732
 H         -0.7731971396       -0.5975020643       -1.0078223950
 O          1.2178965028        1.5190165126        0.8217554382
 H          2.0683984672        2.0051303873        0.8563756686
 H          0.9817824408        1.3414780486        1.7535409871
 O         -1.1415531112        3.2715711374        2.9716011015
 H         -1.3691127818        2.4464137893        2.5025088404
 H         -1.7981297315        3.3332614493        3.6755760456
 O         -0.3698768440       -1.0781634269        1.8748683421
 H         -0.3985071593       -1.6091387514        2.6938147237
 H          0.5765375808       -1.1005931511        1.6058124032
 O          0.0928563852       -1.0199758640       -5.2865179259
 H          0.7159401802       -1.5956961751       -4.8137174058
 H          0.4407240211       -0.1159505205       -5.2584797688
 O          5.6119607064        2.0026502244        2.0167139514
 H          6.2511733885        2.4074213398        2.6032467623
 H          5.3886233344        1.1186984336        2.4183366977
 O          0.8655363350        1.3543833783        3.4723335137
 H          0.7555973875        2.3066768970        3.5667272006
 H          0.0657736160        0.9773431343        3.9362988113
 O         -2.8586167504       -2.5745895997        1.6631658004
 H         -3.6775270802       -2.6024834092        1.1421124934
 H         -2.2007248907       -3.1249937371        1.2159395207
 O          7.1710362071       -1.0961724503       -0.7914171639
 H          8.1180791064       -1.0099455221       -0.6746754569
 H          6.7997868855       -0.1956468448       -0.7166892934
 O          5.0559207239       -0.3333297789        3.0446674296
 H          5.1294180448       -1.0513744730        2.3831405413
 H          4.2171915983       -0.4626638988        3.5125367367
 O          0.0809143589        3.3309732209       -0.8360026367
 H          0.7915343243        3.9704234442       -1.0127556930
 H          0.4612351610        2.6882088419       -0.2020411656
 O          2.4000800370        1.2316616346       -3.0786032316
 H          1.7712156290        0.8265494205       -2.4329323170
 H          1.8448390673        1.5195754756       -3.8210904444
 O          2.1789803497       -1.2910767354        1.4267309655
 H          2.6838194816       -0.7860950927        0.7722353874
 H          2.5735058489       -1.1503801586        2.2901584046
 O         -1.1920194125        0.5612648736        4.8124155794
 H         -1.8478092579        1.2706592922        4.8900127456
 H         -1.6815469155       -0.2481134509        4.5648043541
 O         -7.2483248451       -0.6385066030        0.0949585691
 H         -7.9701934536       -0.8881639605        0.6724722671
 H         -6.8196156239        0.1360544417        0.4927838609
 O          3.0683707425       -3.9234337979        0.5082694957
 H          2.5474919558       -3.3647698505       -0.0989821887
 H          3.8113375676       -3.3733474961        0.8014398634
 O          0.8144864761       -0.0017762601       -1.3230467737
 H          1.0362308916        0.4741993940       -0.4980205417
 H          1.1769179137       -0.9099032337       -1.2303547131
 O         -4.5763318321       -3.3345307002       -2.5114652348
 H         -5.1059890207       -3.9318455449       -3.0388437588
 H         -4.5465716982       -2.4651639674       -3.0072765867
 O         -3.2295704259        2.4637227773        4.7032340678
 H         -3.7294319166        1.8268993866        4.1468551836
 H         -3.7998207452        2.7133486219        5.4300104526
 O          1.7336704162       -2.7339282040       -3.8205169636
 H          2.0725302937       -3.4845805637       -4.3082674342
 H          2.5053661200       -2.1742999811       -3.5720754361
 O         -3.7377124186        2.7884604064       -2.3940792885
 H         -4.4153745156        2.1009074309       -2.4478207880
 H         -3.8954342320        3.2379709095       -1.5471208817
 O         -4.2644357415        3.8142470876        0.1496669126
 H         -4.8168136146        4.5950546402        0.0970351402
 H         -3.3529483047        4.1445228361        0.3908384540
 O         -1.2218237284        1.9948794318       -2.8362224593
 H         -0.7181597004        2.4818836896       -2.1575929417
 H         -2.1368797381        2.3450005363       -2.7828031452
 O          3.6820667169       -1.1045527033       -3.0528604227
 H          4.6269547748       -1.1591990566       -3.2987394093
 H          3.3556651164       -0.2128483935       -3.2913136850
 O         -5.5367319466        1.4069485623        0.8711082644
 H         -5.1375132614        1.0746023568        1.6932122637
 H         -5.1880160624        2.3028109730        0.7375648622
 O          0.3085704623       -2.5674773826        3.9844005774
 H          0.6219372113       -3.3037424746        3.4311002268
 H          1.0856000012       -2.0211535288        4.1618161372
 O         -4.3266450462       -1.0259954480       -3.6720394222
 H         -3.3610752031       -0.8539446444       -3.6641063258
 H         -4.7274968719       -0.3667748694       -3.0862561770
 O          6.3229987400       -1.3587899366       -3.3914011189
 H          6.6537652211       -1.3405565439       -2.4726547122
 H          6.7460360847       -2.0982969039       -3.8283115642
 O         -4.1596712279        0.5014510284        3.1028594394
 H         -4.0543671797       -0.3435863682        3.5532834824
 H         -3.3386029670        0.6076735500        2.5682147754
 O          3.7957503433       -0.2731416518       -0.5013167280
 H          4.5313748870        0.3627958247       -0.5802232057
 H          3.6778864426       -0.6693355925       -1.3896122504
 O         -4.9884830750       -2.2906259762        0.0173956382
 H         -5.8214312771       -1.7944539103        0.0078329428
 H         -4.9168367607       -2.7292232737       -0.8444187500
 O          2.2582021678        5.0018713040       -0.7868039019
 H          2.6346686820        4.5332541981       -0.0230735979
 H          2.0588438209        5.8945211008       -0.5028696986
 O         -2.5088203504       -1.6950477199        4.1419455873
 H         -2.6568148146       -2.0232275541        3.2293524521
 H         -1.8337165656       -2.2747546034        4.5072085271
 O          2.5099107007       -0.6122482825        4.2078213996
 H          2.5972826224       -0.5729357244        5.1614146937
 H          1.9555582300        0.1609572434        3.9517063181
 O          3.4062155711        3.0191014209        0.7793408011
 H          4.1448361606        2.7480683988        1.3479384322
 H          3.7013535909        2.8644973357       -0.1448057088
 O         -1.8980385543       -3.1747963272       -2.1395589147
 H         -2.8420270772       -3.3978824633       -2.2420362661
 H         -1.6913505110       -2.5795746351       -2.8730768064
 O          5.9775287824        1.3414200859       -0.5802167109
 H          5.6047561036        2.0263780155       -1.1535556827
 H          5.9527515301        1.6754866362        0.3382550912
 O         -1.6802240810       -0.6656884377       -3.3654078663
 H         -1.4845051520        0.2581652225       -3.1315349860
 H         -1.1315454131       -0.8426880944       -4.1627836075
 O         -5.5003092477        0.6999953446       -1.8169296369
 H         -6.4015711996        0.3833954584       -1.9164813275
 H         -5.4027041307        0.8738556797       -0.8633715231
 O          0.4630793388        1.7449422076       -4.8922848089
 H         -0.2237373337        1.8706524099       -4.1959429568
 H          0.2129222765        2.2992472420       -5.6312723315
 O         -1.8335989593        4.6048662093        0.7009785161
 H         -1.5552031124        4.2764693466        1.5781799501
 H         -1.2079127620        4.2127553954        0.0657988018
 O          1.2863603683       -2.5995099835       -1.1192599427
 H          0.4986272950       -2.9804328505       -0.6880861838
 H          1.2576938861       -2.8368968799       -2.0600431334
 O         -0.6885279246       -3.7731830536        0.3791793059
 H         -0.0721469121       -4.0718653584        1.0826194734
 H         -0.9415083183       -4.5317455232       -0.1487652780
 O          5.1265093486       -2.0659452187        0.9555597152
 H          4.6013337619       -1.4479711825        0.3947678556
 H          5.9852852199       -2.1155444398        0.5211766664
 O          1.1719825526       -4.4868170281        2.1955049067
 H          1.9486419512       -4.2293541198        1.6155813617
 H          1.3298787247       -5.3920570107        2.4640787838
 O          4.0598934765        2.8944205304       -1.8201984703
 H          3.4676431065        2.2752369196       -2.3071098933
 H          3.7373376975        3.7773194108       -2.0220979925
