  462
       -779.01807502
 H         -2.3710866282        0.9087245092       -0.9699634323
 C         -1.2986308480        0.7510839027       -1.0677153666
 H         -1.0413512521        0.6985233020       -2.1187169777
 C         -0.9184363028       -0.5469996903       -0.3727792693
 H          0.1588969444       -0.6928716360       -0.3998895286
 H         -1.4229423390       -1.3702658580       -0.8636670424
 O         -0.6377926930        1.8530258356       -0.4621719713
 H          0.0357350718        2.1817737915       -1.0914598182
 N         -1.3477924047       -0.4854001873        1.0334565888
 H         -1.0712128002       -1.3402181737        1.5418291724
 H         -2.3791437713       -0.4053356147        1.1241851286
 H         -0.8914291914        0.3305294053        1.4850187413
 O          2.7959779998        7.1271504116        2.5252139402
 H          3.3252967045        6.8171690053        1.7785057627
 H          1.9592377443        7.4424345888        2.1631908700
 O         -4.8117314341       -2.7285198802       -2.2772187956
 H         -4.8190423957       -2.8834002030       -3.2417652337
 H         -5.1862422535       -3.5156224056       -1.8424561891
 O          3.6996714620       -0.5407542587        3.9025950452
 H          3.6977091962       -1.3969009357        3.4151032260
 H          4.6278989143       -0.3145414475        4.0138778173
 O         10.0753257755        2.8549567839        0.0288377616
 H          9.1896230788        3.1769597422       -0.2207577651
 H          9.9908435094        2.6373955275        0.9762965492
 O          7.6849934885        0.7334619407        0.6616011881
 H          8.5856287508        0.4882980877        0.9303504952
 H          7.1613414393       -0.0775430857        0.8160929278
 O          0.3405504177        7.3374969855        1.1523736429
 H          0.8209301858        7.0569294457        0.3589214834
 H         -0.5992985807        7.3155079340        0.9046439112
 O         -4.7914888262        2.1314278080        3.1526073669
 H         -5.0210435023        2.6666923921        2.3756878086
 H         -4.3918668824        2.7517067334        3.7989883426
 O         -2.3799205593       -3.9964177519        0.8476757969
 H         -3.1577564094       -3.7058949123        1.3591137733
 H         -1.6163968643       -3.4916945871        1.1610073011
 O         -0.4441326959       -3.5494579556        5.8081128096
 H         -0.7492277214       -2.6777617702        6.1348441870
 H          0.5004795468       -3.5945794938        6.0195101525
 O         -2.4512796131        4.7824937718        2.4595056748
 H         -1.4941740297        4.8795007266        2.6524462367
 H         -2.5465110798        3.8946961265        2.0448453355
 O         -1.5404874515        2.9283197833        6.0078884679
 H         -1.5624022855        2.0914848276        6.4734921476
 H         -0.8061837150        2.8848204458        5.3704141742
 O         -8.8015000874        0.1033472125        0.1131692009
 H         -8.0076278267        0.4760379591       -0.3245790936
 H         -9.3020889508       -0.4121480377       -0.5520358458
 O          1.9389211976        6.0619626266       -0.7271998195
 H          2.8226695620        5.9707293870       -0.3432943888
 H          2.0019008910        5.7904893436       -1.6623207606
 O          1.0535220476        2.5256439838       -2.3419283684
 H          1.3756706084        3.4028082374       -2.6261108588
 H          1.1222573135        1.9362244737       -3.1145444134
 O         -4.6494489533       -5.9445132897        1.2581662955
 H         -5.4094108035       -5.8083764817        1.8304403609
 H         -3.8659293756       -5.8926257912        1.8274416164
 O         -3.6341052403        3.9945885276        4.7042229633
 H         -3.1816500961        4.4134502662        3.9407463959
 H         -2.9124547899        3.6490793900        5.2636924330
 O          6.1053540187        5.8072391457       -1.4094116671
 H          5.5828405072        5.1067783041       -1.8894700243
 H          6.2701752466        6.5107389989       -2.0350748999
 O         -3.7875967208       -1.4735850889       -0.1017303133
 H         -4.1657445273       -1.8366523321       -0.9151522349
 H         -4.1655076903       -1.9824015705        0.6283783445
 O         -2.7543467175       -1.1247172789       -3.0164088695
 H         -3.0165765513       -0.1906187733       -2.9452604543
 H         -2.8526580384       -1.3579413979       -3.9624758785
 O          2.7541899251       -3.1340156539        0.1462307979
 H          2.3878470962       -2.5966824448       -0.5814111938
 H          2.4011079860       -4.0280036530        0.0331547361
 O          5.5151929861        2.2253984777       -0.5752053854
 H          4.7586680714        2.3084392391        0.0309146667
 H          5.6091859422        1.2615780307       -0.8041313259
 O         -5.8084280853       -0.2480114878       -2.6936864079
 H         -6.0080195217       -0.3446548081       -3.6430497400
 H         -5.5061117303       -1.1201750663       -2.3798918414
 O         -3.7299579789        1.4073265372       -2.9910037125
 H         -3.7426739985        2.1427490546       -2.3489474990
 H         -4.5854474982        0.9508810792       -2.8724553109
 O         -3.8067935397       -0.1863648185        2.3430947512
 H         -3.9220390324       -0.7536550638        3.1233776760
 H         -4.0812285386        0.7127952885        2.6195400323
 O          4.6905422824       -4.3059316477        5.0498687821
 H          5.2589160875       -3.6687543989        4.5842456800
 H          4.8660382275       -5.1765746487        4.6859552161
 O         -5.0208398079       -2.9684863720       -4.9405929139
 H         -5.5828236330       -2.2194338857       -5.1907981238
 H         -4.1450557046       -2.7200137375       -5.2873219744
 O         -6.0846497769       -0.4539945649       -5.3783864845
 H         -6.8544640286        0.0487047282       -5.6479513202
 H         -5.2963531323        0.0936398126       -5.5838625668
 O          0.3376744075        1.4876451223        2.0672859622
 H          0.3507434202        1.9876597373        2.8954420975
 H          0.3517205638        2.1144028758        1.3333847090
 O          0.4592768723        0.4567167941        5.3035810323
 H          0.7774772036       -0.3482463752        4.8372313387
 H         -0.2355270292        0.8284414747        4.7340307332
 O          3.3197623361        3.0145171454        0.8335580869
 H          3.2653632907        2.6923535811        1.7610558720
 H          3.6776987898        3.9180609206        0.8564974887
 O         -2.2006529663       -5.3757543924       -3.5194306254
 H         -3.1288577927       -5.6165655162       -3.7147838819
 H         -2.2545363942       -4.6686584979       -2.8369427405
 O         -0.4000629798        4.3463675185       -5.7168698997
 H         -0.8497485007        4.0777724813       -4.8733529699
 H         -0.1513601891        5.2653237520       -5.6261072688
 O          4.1454437486        1.4091957711       -6.9982053514
 H          3.2407178060        1.7355145486       -7.0504752031
 H          4.6165875212        1.9795952245       -6.3729972966
 O          5.2702102642       -3.5359929362       -5.0254411928
 H          5.1356446589       -2.7839791165       -5.6201716508
 H          6.1844027303       -3.4696735898       -4.7110827330
 O         -0.2906053634       -1.5929083813       -6.6849571111
 H         -0.3861864457       -0.7130292918       -7.0751982277
 H          0.5853873989       -1.6019939908       -6.2620387720
 O         -1.5865105471       -1.7707393067        3.3891302006
 H         -2.1090446806       -2.4118308263        3.8925366683
 H         -0.6705308437       -1.8406194844        3.7213414107
 O         -5.2720860528        3.8960020249        0.9824346051
 H         -4.7481690837        3.5956219960        0.2028883096
 H         -6.2036388481        3.8790854608        0.7247977728
 O          2.2794239184        4.7799884992       -3.0543638296
 H          3.1305748777        4.4400102751       -2.7031637685
 H          2.4545015882        4.8308449948       -4.0180066391
 O         -6.2691195835        2.3164458500       -4.0212159785
 H         -6.5637490909        3.0019492971       -3.4137717022
 H         -7.0121757914        1.6899811103       -4.0678353882
 O         -1.4212925593        4.5025476824       -1.0984664897
 H         -0.7064061409        4.0873009692       -0.5996905238
 H         -1.6424000551        5.3422283908       -0.6329330060
 O          0.9049332672        3.8767165768        0.3676973137
 H          1.7719846521        3.4248926314        0.5042854734
 H          1.1605997260        4.7071934248       -0.0912945536
 O          6.3097276840       -2.3419818532        3.9105655209
 H          6.2264698214       -1.6520166513        4.5984895973
 H          7.2509201028       -2.5237273326        3.8241128115
 O         -0.3133402912       -4.5932724560        3.3195359703
 H         -0.1334651535       -3.9374377248        2.6158279651
 H         -0.3676570428       -4.1176110958        4.1735491117
 O          3.6721932957       -2.8312676324        2.5854810246
 H          3.1944271960       -3.5854995071        2.9868587370
 H          3.3203094415       -2.7717942461        1.6740083594
 O         -1.0641368141        1.0171401952       -4.4568551864
 H         -0.5781518452        0.2204004053       -4.1923933200
 H         -1.0064290079        1.0484830170       -5.4253534677
 O         -6.2477292283       -0.6556638994        1.4260054078
 H         -6.5534376569       -1.2597847060        2.1269057841
 H         -5.2987388313       -0.4813608591        1.6233535493
 O          4.0648165089        0.2516987243        1.1270287605
 H          4.7564822969       -0.4347713926        1.0040397730
 H          4.4917676324        0.9025763399        1.7090177519
 O          4.1612254235        0.6814936867       -3.4184412135
 H          4.2873614222       -0.2891439597       -3.4733297591
 H          3.8292808147        0.8293804294       -2.5064066057
 O          0.1736880378        5.0616020997        2.5962503800
 H          0.4477080581        4.5693428952        1.7859704780
 H          0.3012520929        5.9982783064        2.3587591407
 O          3.0156394363        2.0076179663        3.2630455960
 H          3.0350389643        1.0499248280        3.4382533977
 H          2.2439250104        2.3861680799        3.7122572891
 O          7.6805695683       -3.0579792688       -3.7210017851
 H          8.6345989886       -2.9790661126       -3.7838620637
 H          7.5146624137       -3.6364856119       -2.9426391878
 O         -3.6019768444        0.4830074305        5.7730234394
 H         -3.0213222760        0.8744935359        5.0910749931
 H         -4.2898168976        1.1456779148        5.9697018733
 O         -1.3766300868       -1.1291742449        6.5507623940
 H         -2.2196134595       -0.6747603342        6.4281056244
 H         -0.6810537222       -0.5103577433        6.2611736787
 O         -2.9604361999       -3.8421406062        4.8058019900
 H         -2.2122695872       -3.9468496965        5.4080764020
 H         -2.9738665928       -4.6227736872        4.2282196284
 O          1.4744902090        2.5502967046       -6.4621798002
 H          0.7999305779        3.2155788440       -6.2233229787
 H          1.5462399980        1.9512749390       -5.6741976544
 O         -7.5118178554        3.9567816227       -2.1197845965
 H         -7.7588510607        4.2337068257       -1.2204946391
 H         -8.3428199204        3.9372255290       -2.6451863488
 O          4.8712886577        2.0027111326        5.2940262070
 H          4.4496219498        2.1889597708        4.4392341520
 H          4.1251599117        1.9181184323        5.9142437191
 O         -2.1790616930        6.5258744295        0.4292001763
 H         -3.0798436983        6.7693156086        0.1337300964
 H         -2.3428917694        5.9789041378        1.2276142383
 O          5.5503783700        4.4085423099        2.7412401941
 H          6.4710816883        4.6833501306        2.8534898201
 H          5.6031626107        3.4323070746        2.6163904335
 O         -0.1767794636       -6.3990866569       -2.0593297336
 H         -0.6110173741       -6.5634428524       -1.2053127591
 H         -0.8871402916       -6.1980046929       -2.6973084143
 O         -2.7786544837       -1.6200118924       -5.6355013835
 H         -3.0955467293       -0.7164696948       -5.8303475364
 H         -1.8732686076       -1.6714106823       -6.0014874799
 O        -10.3371703083       -1.3570978634       -1.5105867085
 H         -9.7009822860       -1.6868302425       -2.1706711482
 H        -10.4621770412       -2.0685815086       -0.8634233705
 O         -1.7173741483        3.4734133794       -3.6351601550
 H         -1.5049793454        2.5226829863       -3.7375226727
 H         -1.4854101505        3.7602467538       -2.7381693089
 O          1.7060592655       -0.7875611538        1.6372854499
 H          2.6306108172       -0.5347441221        1.4367770393
 H          1.2509773949        0.0551941204        1.8028853533
 O          3.4556286415       -0.9807434944        6.5739162440
 H          3.4192342072       -0.8005178890        5.6112297796
 H          3.1073671249       -0.1845492227        6.9899800255
 O         -2.4448243293        2.3220718386        1.4879440417
 H         -1.7633983444        2.3204845595        0.7966976773
 H         -3.2441552772        1.9736429729        1.0384809102
 O          1.7540596540        0.9398084347       -4.4099026173
 H          1.6439937320        0.0154979950       -4.7131061604
 H          2.6929120395        0.9612505284       -4.1137775360
 O          6.0164675452       -0.3482979359        5.7175682958
 H          5.3827760684       -0.7483432848        6.3324838152
 H          5.6897158190        0.5761396407        5.5979574324
 O        -10.4937415363        1.4372211855       -2.0567494462
 H        -10.5239970637        1.8625135474       -1.1874599508
 H        -10.7781317636        0.5228263624       -1.9268056001
 O          4.3223657742       -1.9667281388       -3.0107564866
 H          3.4002486064       -2.0434713355       -2.6971797507
 H          4.4887278787       -2.6493410397       -3.6827919399
 O         -7.3840667136        3.1755910384        4.3269564829
 H         -6.9874985663        4.0312959469        4.0745210310
 H         -7.2319664636        2.6011733447        3.5589119652
 O         -5.6893864707       -5.0187066304       -1.1372401341
 H         -6.5807939620       -4.9161757959       -0.7792321910
 H         -5.1599519814       -5.3785909917       -0.4058440447
 O          2.5187613310        1.6241926248        6.6591300508
 H          1.7526263925        1.2730901501        6.1669676459
 H          2.3380142791        2.5594375409        6.8153978992
 O          3.5347176263       -5.0152231393       -1.6945973299
 H          2.9237264439       -5.7615336943       -1.5826028360
 H          3.8050551398       -5.0908488118       -2.6264184462
 O          0.6487223620        3.1060778012        4.3183979423
 H          1.1200044641        3.4378894429        5.1065079329
 H          0.5204911051        3.9059473948        3.7702480635
 O          4.6708298930        3.8725870053       -2.3999224557
 H          4.9668801829        3.1841954626       -1.7483636442
 H          4.9576016352        3.5489355809       -3.2727223274
 O         -1.7703175452        0.9661258910        3.8292051147
 H         -1.8349607124        0.0185581729        3.6007683505
 H         -2.0559651436        1.4775077345        3.0510765715
 O         -4.8532037856       -5.6002674197       -3.7988202046
 H         -5.2209236741       -5.4968046040       -2.9085679170
 H         -5.0699412256       -4.8049564010       -4.3021601888
 O         -7.2301782318       -2.1327198798        3.4695158870
 H         -6.8331014675       -1.4381686031        4.0316919821
 H         -8.1206986607       -1.8085367836        3.2225471511
 O          2.3167874364       -5.0648463585        3.0618425804
 H          2.0900263231       -5.2404363369        2.1161672107
 H          1.4596687173       -5.0374258631        3.5111103377
 O          6.8295008038       -0.4263402573       -3.8699209798
 H          7.0999336250       -1.3554928813       -3.7653474499
 H          7.3690869354        0.0980144776       -3.2564561213
 O         -0.6041837671       -3.7652386957       -4.9019246743
 H         -1.2482034775       -4.4108742203       -4.5397367463
 H         -0.8017232419       -3.6059774280       -5.8258999145
 O         -6.8558271034        1.4932393829       -1.0198751218
 H         -6.5438149960        0.8639975241       -1.7069400173
 H         -7.0813556854        2.3207198287       -1.4754984155
 O          8.0648480993       -3.7530083728        0.9368694180
 H          8.0779574942       -4.2566326261        0.1074731522
 H          7.2420179622       -4.0325377405        1.3826575840
 O         10.2923339847       -0.0511047587        1.2680187339
 H         10.5133805926        0.7194248454        1.8039909567
 H         10.6784997327        0.0686085228        0.3894036416
 O          8.0645648750       -1.5754878772       -0.7906129632
 H          8.0978612589       -2.3117579380       -0.1614119975
 H          8.6748000305       -1.7688758426       -1.5107046733
 O          5.9123054939        1.8082526477        2.3616290914
 H          6.5057288023        1.6493501577        1.5989802993
 H          6.4116641073        1.4212425030        3.0994714859
 O         -4.7736366329        6.4909892801       -0.1757774775
 H         -4.9703765062        5.6783031858        0.3141690623
 H         -4.9300797088        6.2996062393       -1.1099998095
 O          4.3484002308        5.5754218952        0.6879203899
 H          5.0203567239        5.7472434029        0.0066881542
 H          4.8447638442        5.2637063499        1.4820288414
 O          3.2249002814        4.4490269324       -5.5177030800
 H          4.0450485082        3.9689073820       -5.3425918937
 H          2.6616709580        3.8338494848       -6.0205325086
 O         -6.5029334385        0.2654759810        4.4118127240
 H         -5.9467413317        0.8952675640        3.9226367291
 H         -6.4900395500        0.5664161213        5.3209885090
 O          1.8036691816       -3.7381973527       -3.7852324217
 H          0.9603655316       -3.9178977201       -4.2375519085
 H          1.5792803321       -3.6787772157       -2.8373341116
 O        -10.3976876225       -3.0346448491        0.7475564461
 H        -11.2323905660       -3.3930727045        1.0487204243
 H        -10.1278955778       -2.3527234483        1.4020072359
 O         -4.5811682949       -3.0481316424        2.0562918613
 H         -4.5797774347       -2.6010080765        2.9167700971
 H         -5.2709128983       -3.7164121352        2.0969635934
 O          5.6935554924       -4.5390842945        1.9605734431
 H          5.4343152340       -5.3121695116        2.4983609207
 H          5.0573918843       -3.8324962489        2.1916025778
 O          7.2357446228       -4.5346002724       -1.5447642567
 H          6.5147441491       -3.9372975668       -1.2212376907
 H          6.8699621582       -5.4214712019       -1.4237075977
 O          3.3590132749       -7.6680852342        0.4077922224
 H          3.0691766437       -8.0041923129       -0.4493464824
 H          4.2136910223       -7.2130903192        0.2162659472
 O          1.9389495669       -1.5338487470       -1.8590773772
 H          1.1664269337       -1.4696936407       -2.4533238546
 H          2.2193708256       -0.6282286702       -1.6263509914
 O          2.1269236119       -1.5263727385       -5.3170509486
 H          2.1016657468       -2.3037392569       -4.7261658954
 H          3.0568134652       -1.3995013429       -5.5741101702
 O          4.5025285400       -6.6001054578        3.2036346769
 H          3.6412745061       -6.1346957318        3.2500373732
 H          4.3760608414       -7.3187209624        2.5792514920
 O          1.6203127537       -5.6844024471        0.5990820877
 H          2.2171056521       -6.4677585382        0.5191469963
 H          0.7114741421       -6.0080128979        0.5995433936
 O          2.3100996519       -3.2863051514        5.7375886827
 H          3.1074206254       -3.7861056785        5.4690601284
 H          2.6601002543       -2.5663342651        6.2917475129
 O          9.9059348416       -1.3375990003       -2.9198856390
 H         10.4306967063       -0.7569890614       -2.3549314957
 H          9.5125086210       -0.7813084016       -3.5971321336
 O         -1.1881517284       -6.3811202990        0.4721062136
 H         -1.8043994553       -7.0589619651        0.7481799636
 H         -1.6547319612       -5.5264078042        0.5969845917
 O         -2.1346226972       -3.4092984108       -1.7487545832
 H         -2.6868603401       -2.6889348337       -2.0992894527
 H         -2.4297209977       -3.6112549547       -0.8404861879
 O         -8.4449472046        0.6828535703       -3.8679365800
 H         -8.3062131617       -0.2534521299       -3.6442816030
 H         -9.1216282431        0.9937631360       -3.2499545390
 O          2.0709123460        4.3152313385        6.2665929051
 H          1.7812887286        5.1224982827        6.6892899255
 H          2.5950537047        4.5769611911        5.4659754291
 O         -5.8721656910        5.2219703204        3.4139592494
 H         -5.1454484684        5.1459417493        4.0418056082
 H         -5.5158854125        4.9267076986        2.5651919737
 O          8.8493891169       -1.8615546075        2.7623571767
 H          8.6029595887       -2.5524150082        2.1258559019
 H          9.5510351666       -1.3673675888        2.3175579914
 O          7.8097344760        0.4575002099        3.7437550488
 H          7.6062443554        0.2776214930        4.6663358401
 H          8.0969872820       -0.3922640493        3.3528958546
 O         -9.4390509948       -1.1134847456        2.3753315664
 H         -9.7538146890       -0.3406831942        2.8775746123
 H         -9.0346079998       -0.7055685002        1.5767011587
 O         -9.6748819417        1.4497974405        3.2304976529
 H         -9.5494152671        1.8634448757        4.0864373206
 H         -8.7955685009        1.5223190958        2.7922972377
 O         -7.3194973413        1.6939111367        1.9601348362
 H         -7.3149387851        2.1469594160        1.1136518467
 H         -6.9283761950        0.8050623116        1.7913541264
 O          5.2912004462       -2.9733472694       -0.6804972711
 H          4.4071086110       -3.2594830008       -0.3738680267
 H          5.0950041293       -2.4414830640       -1.4776248630
 O         -2.5389431719       -5.9664470795        3.1150453540
 H         -2.3646526981       -6.8002855198        3.5502351238
 H         -1.6642025841       -5.4972269116        3.0543226825
 O          5.3041012953        2.6599405833       -4.7640297544
 H          4.9936418175        1.8442931872       -4.3104736490
 H          6.2306346294        2.7785838877       -4.5005200040
 O          5.7534108383       -0.2650714220       -1.2658681421
 H          6.5492526317       -0.7582843314       -0.9964230222
 H          5.7628430604       -0.2924072043       -2.2308631505
 O         -0.7137789189        1.0904090539       -7.1964763456
 H         -1.4095621266        1.6998988271       -7.4667540336
 H          0.1226914682        1.5920401856       -7.1895511606
 O          4.7831953003       -0.9576344856       -5.8510435560
 H          4.5896377130       -0.1801664298       -6.4092315168
 H          5.4628919435       -0.6701862603       -5.2242045139
 O          1.0128135906       -1.7784279820        4.0006971325
 H          1.5024079184       -1.5219698524        3.1963073717
 H          1.5666793034       -2.3776503305        4.5489127101
 O          3.0849493135        4.8306732224        3.9171796208
 H          4.0081363982        4.6429658030        3.6955522898
 H          2.8929290162        5.7041727329        3.5274534899
 O          2.8328143927        0.8734697880       -1.1544284433
 H          3.2538703153        0.7878511391       -0.2769417124
 H          2.2571673608        1.6496363432       -1.2047815042
 O         10.9951228287        0.8454072232       -1.3233955041
 H         10.6781060820        1.6610106298       -0.8323181017
 H         11.8985231307        1.0287523262       -1.5809535972
 O          6.0894648183       -1.3924711437        1.3281319973
 H          5.9027713183       -2.0683928545        0.6446680553
 H          6.1076928252       -1.8259891973        2.1969554856
 O          0.1022406105       -2.9404376513        1.1969878754
 H          0.8166355036       -2.2907518354        1.3271963601
 H          0.3142989408       -3.3706574888        0.3412072161
 O         -2.6558452216        3.1497481719       -6.8807707618
 H         -3.3406711079        3.5923165636       -6.3477850748
 H         -1.8377375644        3.6122636908       -6.6405041265
 O          7.4854299278        3.2913573461       -3.2973244637
 H          7.6937817664        2.5085933855       -2.7434359417
 H          8.3096812455        3.7522557912       -3.4421800778
 O         -5.2044280826        5.3492031766       -2.6994464736
 H         -6.1160507243        5.0257402837       -2.6249416407
 H         -4.8686572719        5.0575913929       -3.5730654290
 O         -9.6939730942        3.5925054142       -3.5923416813
 H        -10.1876506387        2.9062793481       -3.1179560638
 H         -9.4890898464        3.2308308309       -4.4568139259
 O          5.4294481944       -6.1240638554       -0.2470885582
 H          5.5752255561       -5.5442591392        0.5222028585
 H          4.7791113175       -5.6373284141       -0.8097802835
 O         -4.4951660741       -1.6844289066        4.4859158599
 H         -4.2941444973       -0.9186837712        5.0661167095
 H         -4.0429001651       -2.4473279562        4.8710375328
 O          7.5710372309        3.8548781026       -0.1749075185
 H          6.8893683607        3.1507523571       -0.2623590228
 H          7.2170058375        4.6090612029       -0.6720998284
 O         -8.0498966013        4.1267701711        0.5210040133
 H         -8.8404668071        3.5317115484        0.5602972205
 H         -8.2070310075        4.8419302991        1.1392669758
 O          2.3397878397       -7.4098669765       -2.2104556237
 H          2.7243936377       -7.2526173846       -3.0792666205
 H          1.3980997335       -7.1760834960       -2.2713101080
 O         -3.7639700513        0.8934853553       -5.6622875737
 H         -3.3874918484        1.6021258791       -6.2071022871
 H         -3.6154895837        1.1619815278       -4.7319168568
 O         -3.8932069787        3.5108019737       -1.2677361627
 H         -4.3375134043        4.2054284288       -1.7982099660
 H         -2.9718511126        3.8167352535       -1.1498558445
 O         -4.3399492145        1.1604072586        0.0337992560
 H         -5.2463173951        1.3392131670       -0.2486027109
 H         -4.2079670882        0.1970325083       -0.0452304023
 O          9.5812635591        2.2846109196        2.6738363389
 H          9.1409196562        3.1448149167        2.7666990855
 H          8.9725051491        1.6467321474        3.0902464775
 O         -5.5325207949        2.3992512252        6.1279884435
 H         -6.2779691411        2.6653275883        5.5412045447
 H         -4.9615462718        3.1712061742        6.1590326383
 O         -0.1851966256       -1.4078627923       -3.4887759947
 H         -0.2109860690       -2.1658261711       -4.0943870410
 H         -1.0999808748       -1.3517850836       -3.1389863707
 O         -6.9332989083       -2.0685582820       -0.7272719149
 H         -6.6851791230       -1.4526466133       -0.0110629032
 H         -7.2726733452       -2.8702263540       -0.3015818203
 O          8.2214526622        1.0910705922       -1.9638759153
 H          7.8826975287        0.9538339915       -1.0475146549
 H          9.1728003383        0.9680410254       -1.8892919652
 O        -10.0434794287        2.3672154971        0.6098091183
 H        -10.3565381160        2.3153863662        1.5216990749
 H         -9.5573012345        1.5123437099        0.4799980233
 O          0.4664938159       -3.8648175228       -1.3550737162
 H          0.4230823427       -4.8263006530       -1.5113403243
 H         -0.4066057612       -3.5369636206       -1.6335865054
 O         -7.9591966997       -4.3313374646        0.4086948038
 H         -8.8704069885       -4.0102384582        0.4993005242
 H         -7.6301902887       -4.5133714328        1.3029487115
 O         -4.1672910893        3.9416941639       -4.7410381940
 H         -4.7906256889        3.2110714421       -4.5909067027
 H         -3.3439269133        3.7142450871       -4.2631938311
 O          3.6212231932       -5.6559747666       -4.3182951441
 H          4.3275439393       -5.1736136614       -4.7653722949
 H          2.8713452728       -5.0311394377       -4.3008885258
 O         -8.1636505159       -1.9331193019       -3.0267657369
 H         -7.8109718794       -2.6327697496       -3.5757666302
 H         -7.6237336739       -1.9233296900       -2.1935478170
 O         -6.7839190421       -4.6586254235        2.9102045538
 H         -6.9500404924       -3.7294110847        3.2067588899
 H         -7.0511024675       -5.2191357772        3.6383197182
 O          8.2236951079        4.6667382174        2.2749406148
 H          7.9834711697        4.3592251216        1.3662033413
 H          8.8130059170        5.4127619095        2.1697732713
