  135
       -229.10035191
 O         -0.7696603024       -0.0996698893        0.6920027344
 H         -0.3435390889        0.6027091805        0.1683469566
 H         -1.1995021675       -0.7056003647        0.0613134152
 O          0.6929923415        4.3548129388        0.0495164468
 H          0.9671234307        4.5980275246        0.9543290954
 H          0.1942818731        3.5199080037        0.1629661291
 O         -2.0993923518        0.9248689550       -2.2833177645
 H         -2.8555563799        1.1761008652       -1.7202328439
 H         -1.7211697849        1.7464459083       -2.6226801964
 O          2.9485659579        2.7965506478       -1.0936069691
 H          3.0429417314        3.1846866602       -0.2094065350
 H          3.7736890852        2.2774642901       -1.2566209612
 O         -1.2330520491        2.5664756200        0.5762941376
 H         -1.9169071812        2.5795281135       -0.0992003132
 H         -1.5792020572        3.0846849150        1.3217799380
 O          0.9769220423        0.3137898429        5.2357966026
 H          0.6648320518       -0.2075067146        4.4597078699
 H          0.3614133291        0.0984178216        5.9393408027
 O         -2.7332347864       -2.2687227214        1.7999996267
 H         -2.5246788918       -2.6915261796        2.6488389614
 H         -1.9432295248       -2.3843295965        1.2441805726
 O          0.0925672727       -0.9890405295        3.0946880030
 H          0.3596569371       -1.9267613444        3.0191225373
 H         -0.1732299875       -0.6885282771        2.2003647091
 O          0.0922737772       -1.0120089221       -2.3132620779
 H         -0.7753588275       -1.2569495747       -1.9232232621
 H          0.3497646290       -0.1629851740       -1.8929486950
 O         -2.8100886748       -1.0368953580       -3.9295958716
 H         -3.7084489297       -1.2023918007       -3.6261387986
 H         -2.5050155159       -0.3089519250       -3.3362832498
 O          1.8728726890        3.7087369641       -3.3232088100
 H          2.2553141682        3.4732492971       -2.4432293793
 H          2.4738869663        4.3389977884       -3.7185598783
 O         -1.3635926705        5.4525430604       -1.0910697058
 H         -0.5491971312        5.1376851787       -0.6007273079
 H         -1.2076008040        6.3649156345       -1.3299961849
 O          0.6680846536        1.3364768812       -1.1571205667
 H          1.5312193776        1.7860344561       -1.0704814942
 H          0.0901832030        1.9673030593       -1.6156908917
 O         -3.0413853079       -4.2653949603       -1.4647670621
 H         -2.8782721928       -4.1384487316       -2.4078271027
 H         -2.2840373258       -4.7734047344       -1.1497404519
 O          3.2458589806        0.0546697656        3.7928942978
 H          3.8785421867        0.7701827882        3.8765517809
 H          2.6138922218        0.1303891757        4.5263925419
 O          0.5773867817       -3.6224043341        2.8300919926
 H          1.4817197189       -3.9422692488        2.6364782424
 H          0.1950681899       -3.4840260351        1.9291236830
 O         -3.1346396179        0.4421600744        1.6633626295
 H         -3.2858770233       -0.5081568950        1.8020948593
 H         -2.2085723359        0.4617190992        1.3100457717
 O          1.6900004291        1.0177737710        1.7162963301
 H          0.9176203943        1.4423241101        2.1359997681
 H          2.1467521283        0.5366720609        2.4278264174
 O         -2.5008679407        1.6914364246        3.9049691129
 H         -2.4017038267        0.9375890321        4.5106586399
 H         -2.8481807144        1.2816950580        3.0772413937
 O          2.9275413900       -4.2190830559        1.6619724534
 H          2.6890685295       -4.3688485992        0.7350362349
 H          3.4478009053       -3.3989884588        1.6709927400
 O          2.4087940938       -4.6168470735       -1.1340960650
 H          2.3334891634       -3.8876803214       -1.7924083252
 H          3.0990788499       -5.2009424925       -1.4470986982
 O         -3.5873740274        4.2680144226        0.0983734044
 H         -3.3649508129        4.3757062431        1.0309987898
 H         -2.9028813438        4.7515733623       -0.3917641426
 O          0.6730294442       -2.8191598677       -5.4610130904
 H          0.3862150220       -1.8770743825       -5.3293937985
 H          0.9994017747       -2.8839531907       -6.3574033063
 O         -4.6448581834       -0.8267127609       -1.7580288444
 H         -4.9495217280       -1.4630665000       -1.0776692862
 H         -4.7595583923        0.0575808889       -1.3878674416
 O         -4.0704131359        1.6499475386       -0.5579572114
 H         -3.8521904563        1.2295102692        0.2999219826
 H         -4.1041111232        2.6070440809       -0.3868703749
 O         -4.8791233301       -2.7600809132        0.1129877021
 H         -4.4985070675       -3.4635247111       -0.4277367822
 H         -4.2012462135       -2.5658299297        0.7838533306
 O         -0.7471300395        3.2560799809       -2.6626056468
 H         -1.0741530890        4.0339449048       -2.1818723777
 H          0.1135105837        3.5098159728       -3.0296465911
 O          3.9077909491       -1.6046737862        1.6608372244
 H          3.5965307074       -1.3137732736        2.5286038197
 H          3.1455910620       -1.4657403911        1.0368535083
 O          1.4151352813        4.4945458361        2.6516145272
 H          0.9294835628        3.7232827746        2.9946835820
 H          2.3037066679        4.1702108574        2.4531710446
 O         -0.3390522440       -4.6890961499       -1.4538452542
 H          0.6147388490       -4.8592095352       -1.4254446163
 H         -0.5360102805       -4.2020950166       -2.2761126203
 O          5.3411719442        0.6356106983        1.3874379897
 H          4.8359803207       -0.2132913726        1.4480798871
 H          6.2568956401        0.4139711461        1.5546075334
 O          5.0563579023        1.2222594894       -1.3073918484
 H          4.5370089983        0.4864209835       -1.6765952527
 H          5.1942869842        1.0133649062       -0.3680449786
 O         -2.1738479463       -1.6549024183       -1.0689094183
 H         -2.3970161057       -2.5999075918       -1.0953516468
 H         -2.9876476409       -1.1962705671       -1.3634400069
 O          1.9246038509       -2.8025519941       -3.0090340275
 H          1.6364133550       -2.9867419005       -3.9166682894
 H          1.2272492576       -2.2031285087       -2.6540874737
 O         -1.4207332548       -3.3691566813       -3.6260202729
 H         -1.9003534278       -2.5154360263       -3.7000658642
 H         -0.7807923121       -3.3665246483       -4.3478613300
 O         -1.8321592324       -3.5491240687        4.0819600479
 H         -0.9092422258       -3.6293394629        3.7697684325
 H         -2.1450211004       -4.4420746745        4.2259307886
 O          0.0814109356        2.2486513476        3.5032422604
 H          0.4841759849        1.7720515811        4.2460470537
 H         -0.8813159719        2.0584685110        3.5756498955
 O         -2.2118941534        4.1338951907        2.6312461228
 H         -2.4800987607        3.4337557744        3.2464131529
 H         -1.4181131025        4.5363135342        2.9923878329
 O          3.1529414056       -0.4935427732       -2.2164757192
 H          2.7618131315        0.1334827396       -2.8677533788
 H          3.0603577149       -1.3651462516       -2.6270052808
 O          2.1088252661        1.0475735811       -4.1332173235
 H          1.2854490957        0.7055152218       -4.5050099474
 H          1.9601268067        1.9812445973       -3.9156749048
 O          1.8696057766       -1.1401526667        0.0688251642
 H          1.5912602105       -0.3063707968        0.4926313561
 H          2.2737945153       -0.8788538050       -0.7851876186
 O         -0.2159303369       -0.4100267973       -4.8405528096
 H         -1.1662151678       -0.3872949505       -4.9932490356
 H         -0.1302912172       -0.6023653334       -3.8662149269
 O          3.5399816363        2.9196420087        1.6068458251
 H          2.8266520470        2.2398388517        1.5792629289
 H          4.3557019826        2.4101755558        1.5518808135
 O         -0.2712031439       -2.8563951044        0.4840465746
 H          0.4597067129       -2.2552423489        0.2440031115
 H         -0.3187105279       -3.5376746266       -0.2167843618
 O         -1.8447805256       -0.7530366054        4.9647690919
 H         -2.2782737380       -1.6055942564        5.0443886808
 H         -1.2258710963       -0.8677239927        4.2132911320
