  375
       -636.59730125
 O          0.9995545225        0.4115263570        0.4140091694
 H          0.1867972423       -0.1191209882        0.4923481248
 H          1.5858351856       -0.1096775733       -0.1605588970
 O          3.4667438006        1.3454056440        1.3844184381
 H          3.5815811894        2.0334324702        2.0633934088
 H          2.5343553057        1.2995981807        1.1407377532
 O          0.2676944141        2.7705323225       -0.4755140839
 H          0.0052509740        3.3124892975        0.2858567663
 H          0.6269189411        1.9224538052       -0.1297192695
 O          0.9008120775       -5.9966751214       -0.9072535316
 H          0.2359693874       -6.4745876685       -1.4388115339
 H          1.5144323425       -5.6160595622       -1.5583003072
 O         -0.1024856697       -1.7302755200        2.9303849725
 H          0.0741639837       -1.9706199221        1.9991303533
 H         -0.9690357371       -1.2526615505        2.9656273058
 O         -1.5192996710        1.5700565069        1.7198911565
 H         -2.0552364329        2.2235807829        1.2547637687
 H         -1.6278290334        0.7158074662        1.2587462917
 O          5.1045582833        0.5940296741       -0.4637571027
 H          4.5510514272        0.9914976461        0.2532749453
 H          4.5184486664       -0.0721932801       -0.8648893571
 O          1.2920777795        4.0177042096       -2.7005859125
 H          2.1210802411        4.5243730295       -2.6308013414
 H          1.0869752380        3.6748987322       -1.8108175678
 O          2.9092297583       -0.8552170950       -1.0214933984
 H          2.7042994131       -1.4519823855       -1.7685916791
 H          3.1537802911       -1.4080337880       -0.2578854372
 O         -0.6733390979        2.4328201093       -3.4979954383
 H         -0.4597296398        1.5238382847       -3.2157516889
 H          0.1633884195        2.9194221462       -3.4350182441
 O          0.9505034965        2.1871920231        2.5956625160
 H          1.3352966920        1.3456912123        2.9249246963
 H          0.0854110326        1.9413253383        2.2051369752
 O          1.8462708274       -2.3916678105        5.1986040778
 H          1.8441911704       -2.5839725746        4.2410507627
 H          1.5073457754       -3.1987627032        5.6376437280
 O          0.7388734015        5.6179852176       -0.4646795620
 H         -0.0044386603        6.1779871108       -0.1547420222
 H          1.5035919835        6.2080815269       -0.5458578163
 O          3.8685327381       -1.6302822846        1.4059544841
 H          4.6077039792       -2.1949949762        1.1082193346
 H          4.2932659821       -0.9613137081        1.9826454225
 O         -2.5224667137       -1.4921979935       -1.8625515748
 H         -2.2136195737       -1.6227413570       -2.7781606524
 H         -3.3009912891       -0.8953820712       -1.9062492044
 O         -1.4945880515       -0.8278645452        0.5502564369
 H         -1.7973594065       -0.9767200370       -0.3597270274
 H         -1.7191508202       -1.6330274390        1.0405292041
 O         -1.1864095079       -3.9353984582       -1.0561787353
 H         -1.9662801040       -3.8635318362       -1.6288909736
 H         -1.2738098431       -4.7667373222       -0.5623727847
 O          0.3313954486       -4.8140216769        1.5621068185
 H          0.5404106673       -5.1184856751        0.6645384310
 H          0.6574015922       -5.5066050300        2.1680323068
 O         -2.8744833865        3.5833476537        0.2666298271
 H         -2.4296902400        3.8669435118       -0.5724213637
 H         -3.6738502226        4.1379696453        0.3530340848
 O          0.6584843464       -2.3670266651        0.3582104724
 H          1.4894145956       -2.8079580784        0.1167586391
 H         -0.0340922359       -2.8009402891       -0.1542309105
 O         -2.7127440552       -0.5434817804        6.8707465260
 H         -3.1405665609       -1.2647762188        6.3821579373
 H         -3.2282303587        0.2432899597        6.6149134347
 O          2.1167595689       -1.8666805034       -3.3004747754
 H          2.8332049921       -2.1705844891       -3.8833962061
 H          1.4211717569       -2.5490033682       -3.3332097832
 O          4.3581490940        5.5978579798        1.6049481968
 H          4.3025754408        5.8700630442        2.5258259957
 H          3.6263600411        4.9457749804        1.5161909844
 O         -0.3454273084       -0.2053106355        5.5145284186
 H         -0.0200451217       -0.9937189891        5.0729170303
 H         -1.1183965162       -0.4576361900        6.0503287440
 O         -0.7129110234       -2.5353175629        7.5354451953
 H         -1.4566496625       -1.9505057769        7.7104204944
 H         -0.7940277479       -2.7849815492        6.5959027140
 O         -3.9342672029        1.6283351095        5.7067336245
 H         -3.9724183910        2.4988988550        6.1104887271
 H         -3.0938544331        1.6444182920        5.1643748489
 O         -2.4881879452       -0.6962367488        3.3141838636
 H         -2.9023914080       -1.2114622774        4.0250052552
 H         -3.0800726640       -0.7739357498        2.5447053928
 O         -0.6805746186        4.3925443760        1.6358272799
 H         -0.7762094086        4.1245055785        2.5605771080
 H         -1.5683061806        4.2912793980        1.2521478818
 O          0.0424973526       -3.5998845176       -3.3710136856
 H         -0.0377784633       -4.4767953407       -3.7836828643
 H         -0.2692207728       -3.6983457417       -2.4496586356
 O         -3.7128676434        2.5223752162       -2.5817360205
 H         -3.0543625836        2.0857013554       -1.9915958278
 H         -3.4991986052        2.1793500670       -3.4647924490
 O         -1.4460849194        7.0490063312        0.0141598666
 H         -2.0828412932        6.7056764911        0.6630459354
 H         -1.8517444636        6.9778037356       -0.8622341613
 O          4.3888466644       -5.5144259175        1.0324141863
 H          5.3078174250       -5.2521979948        0.9453352671
 H          4.1917544218       -5.4754412467        1.9818368274
 O         -1.6058929894       -1.7415220721       -4.3565454647
 H         -1.0371813118       -2.5211734277       -4.1980988497
 H         -2.3459459322       -1.9981311028       -4.9399710526
 O          1.5695509608        1.7957005276        6.8385017152
 H          1.4332721325        0.9075770697        7.2127995899
 H          2.2298385634        1.6523577869        6.1436854785
 O         -1.8591879183        1.2964609970       -1.1851618725
 H         -1.1368949498        1.9056856596       -0.9335319163
 H         -1.4278337368        0.5796419022       -1.6626534410
 O          1.6193633523        1.6649444055       -4.8987340794
 H          1.8633531958        1.6084680925       -3.9487480624
 H          2.2691969377        1.1278468200       -5.3771945215
 O          6.4184638786       -1.9503575255        4.5223700178
 H          6.0090945456       -1.2447874834        3.9583581256
 H          6.8629747122       -1.5033253643        5.2422325284
 O          3.7809882969       -5.0755766534        3.7371911513
 H          3.1874903280       -4.3733029644        3.3526164310
 H          3.9575136149       -4.7517805475        4.6409461342
 O         -0.1672900118        5.7254665885       -4.1295825248
 H          0.3756434569        5.5557107388       -4.9139352419
 H          0.2857288418        5.1827937437       -3.4437803910
 O          1.9395242094       -0.1672530733        3.2408440538
 H          1.1523310717       -0.7600145721        3.1822816957
 H          2.4631924227       -0.3301715563        2.4486514651
 O         -2.8624682053       -6.3530250649        2.7992375349
 H         -3.2347640699       -7.2340941699        2.8143790587
 H         -2.4890917520       -6.2192088086        1.8990138726
 O         -4.3496877472        5.1273668863       -2.4047085072
 H         -4.0165533740        4.2030481586       -2.3957791133
 H         -3.5606296111        5.6881925865       -2.4773496143
 O         -0.7208562944       -5.9566184500        4.5453364856
 H         -1.4900983252       -6.1304369498        3.9773438055
 H          0.0544806910       -6.3094037866        4.0790987608
 O         -6.4479856561       -3.2910546955        1.4684942594
 H         -6.4809666515       -4.0860174209        0.9191600873
 H         -5.6660747609       -3.4240517462        2.0431617116
 O         -0.0280641402       -0.0963398631       -2.8826208586
 H         -0.5974660987       -0.6205503877       -3.4645013856
 H          0.8374043704       -0.5245302867       -2.9211107301
 O          2.9291693137       -3.6249195926       -0.3750870191
 H          2.8041494431       -3.9638178355       -1.2724775011
 H          3.4124335930       -4.3064159795        0.1155759749
 O         -1.9943597516       -3.3342364383        1.6629491052
 H         -2.4700647650       -3.5084758292        0.8313496742
 H         -1.2037281739       -3.9007412204        1.6731732043
 O          3.9868406637        4.2931202602       -4.9205810467
 H          3.9298716658        4.8044647067       -4.0979927744
 H          3.1173224027        4.3612438661       -5.3384775763
 O          3.5353975661        0.7773328838        5.1124694650
 H          2.8376188704        0.2990571016        4.6178859717
 H          3.8355166761        0.1980936131        5.8489077089
 O         -4.2506738012       -0.9370334119        1.2927051666
 H         -5.1113835673       -0.8852957384        1.7470577842
 H         -4.1593586241       -0.0710979760        0.8440485814
 O         -1.7180677295        1.7155251134        4.3602190608
 H         -1.8155541165        1.5375848693        3.4012082588
 H         -1.1523389182        0.9949555217        4.7159360005
 O         -4.7621635151       -0.1873023899       -1.8152922257
 H         -4.6430707416        0.5720632428       -1.1982605412
 H         -5.4027743934       -0.7780146594       -1.3770920170
 O         -6.6469608415       -1.7671515228       -0.7607649508
 H         -7.2164291852       -1.0102995436       -0.5672650450
 H         -6.5342325194       -2.2671500338        0.0746176440
 O          2.6817591773        1.4182490679       -2.4762354205
 H          3.5138562387        1.5099840197       -2.9929934176
 H          2.7230857724        0.5828787482       -1.9882126510
 O          3.6185532476        5.3621855861       -2.3840364546
 H          3.8275075671        4.6135569825       -1.7766248542
 H          3.5197911635        6.1374017424       -1.8199201005
 O         -3.2189036864        6.2231284897        1.9820941717
 H         -3.2162123391        5.3090239820        2.3575325050
 H         -2.9306995777        6.7890176742        2.6990750142
 O         -3.1691915298        3.8172708858        3.1110289201
 H         -3.8230296559        3.1141446552        3.0152351229
 H         -3.0434115263        3.9383205793        4.0716813724
 O         -7.5054833203        0.8095516145       -0.1090642479
 H         -7.5173408406        1.6101956042        0.4345799109
 H         -7.1282040618        1.1472764213       -0.9481727029
 O         -6.3996388444        2.0626372699       -2.2452696618
 H         -5.4485063142        2.2798192853       -2.2224618096
 H         -6.6321539047        2.0696263053       -3.1800887485
 O         -5.2631227656       -0.3303764329       -4.3744668319
 H         -5.7802691395        0.4321182043       -4.6791139686
 H         -5.1290387469       -0.1858748175       -3.4050334516
 O          3.7015671077        3.2373329349       -0.8289994778
 H          3.2320340552        2.5668756303       -1.3669673944
 H          3.1167840044        3.4548242518       -0.0691068837
 O         -6.3260693733        2.0983263148       -5.0585431957
 H         -5.6873513527        2.8594370658       -5.0326179709
 H         -7.0334936605        2.3634000055       -5.6437336728
 O          2.2430211970       -3.2607621422        2.6989285938
 H          2.7676886619       -2.6575447239        2.1282206465
 H          1.5195321125       -3.6376059837        2.1622531946
 O          4.1873636914       -2.8007506365       -4.8781639119
 H          4.7634248794       -2.0201715445       -4.8276431251
 H          4.6224263595       -3.4752438296       -4.3347323330
 O          6.3476637883       -4.2370223125        2.9996851030
 H          5.5114914187       -4.6058374829        3.3355489026
 H          6.5749095686       -3.5202248879        3.6107386778
 O         -6.4831797394        2.9946478500        1.2222173554
 H         -6.1236078758        3.8354950609        0.8999567712
 H         -6.1177060614        2.8359774146        2.1061051683
 O         -2.3751731875       -4.3986837235       -5.7050664545
 H         -1.8020234430       -3.9044611592       -6.3435121774
 H         -3.2662980281       -4.1411478183       -5.9599559245
 O         -5.5644775188       -2.9412217647       -3.0589860670
 H         -5.5623073675       -2.2145300835       -3.6923187379
 H         -5.9654396730       -2.5794799702       -2.2525838181
 O         -3.7885755855       -2.0641402602       -5.9221999748
 H         -3.4001329378       -1.5330779409       -6.6428308008
 H         -4.4189738513       -1.4865589129       -5.4685731072
 O          2.2265329859        4.0681306616        1.1730420699
 H          1.5648931709        4.6172242012        0.7046956587
 H          1.7463551919        3.4418042329        1.7477967798
 O          5.6159045170       -0.4645973036       -4.6806003254
 H          6.3536518660       -0.6501719186       -4.0908507198
 H          5.3376219312        0.4487518128       -4.4511031026
 O          5.3374067231       -2.1799207993       -1.7759370969
 H          6.0507400293       -1.5653297305       -2.0272695577
 H          5.5287013627       -2.4559751732       -0.8671333473
 O          4.3320373972       -3.2870990589        5.7095246142
 H          3.4692629933       -2.8696856833        5.4937917779
 H          5.0252763075       -2.8170530205        5.2146079452
 O         -3.5245063656        2.1730822373       -7.3718043501
 H         -2.6147141723        2.5261276427       -7.5181839851
 H         -4.0930501959        2.9354311385       -7.2487077984
 O         -5.7089271877       -4.9247589494       -0.7305016946
 H         -5.0172635288       -4.2397922836       -0.5493041433
 H         -6.1374228606       -4.6374630035       -1.5398098067
 O         -0.1416215273        3.7672115267        4.3359039551
 H         -0.8306932615        3.0860050800        4.5356523034
 H          0.4905217005        3.2703955030        3.7695199951
 O          1.8906910910       -4.2563590024       -5.4144568512
 H          1.3684318622       -3.4412676374       -5.5067488205
 H          2.7963769722       -3.9704106155       -5.5809238247
 O         -0.9708023851       -2.9850724151       -7.4512908819
 H         -0.2111999005       -2.5782171947       -6.9954030403
 H         -1.5092325432       -2.2519828438       -7.7697956115
 O         -0.3000481900       -5.9075220747       -4.7726870377
 H          0.4735975440       -5.6689497871       -5.2985464889
 H         -1.0788673455       -5.5601101150       -5.2362921910
 O          5.2826872431       -4.4775857144       -2.9982406409
 H          5.2919315881       -3.6165991408       -2.4907925979
 H          6.0994974908       -4.9303948163       -2.7953972504
 O         -4.2464970204       -3.9141544431        2.9548017611
 H         -4.0344971725       -4.8512081032        3.0572830032
 H         -3.4399255381       -3.5494663639        2.5243496209
 O          2.4218845553       -7.4930501566        0.7665485327
 H          1.8420160375       -7.0459035621        0.1188063047
 H          3.2564534661       -7.0075253350        0.7280263014
 O          3.2257513807       -0.1253006788       -6.2377373229
 H          3.9931986991       -0.3548050281       -5.6953444472
 H          3.5589519542        0.0980994008       -7.1065465472
 O         -3.6189893405       -6.3446243469       -1.7033558348
 H         -4.4751728283       -6.1069814183       -1.2995329165
 H         -3.4016852716       -5.5571695368       -2.2551245153
 O          1.5316661048       -6.6478637389        3.1237286776
 H          2.3200357598       -6.2416630570        3.5199078711
 H          1.8517474818       -7.1370951293        2.3303133811
 O         -3.1071705129       -4.1036161395       -3.0408891162
 H         -2.8000663225       -4.1951561882       -3.9580465692
 H         -3.9771974023       -3.6569870543       -3.0705200502
 O         -3.0598353089        1.1864380031       -4.8775028429
 H         -3.3061273980        1.5783441886       -5.7367759359
 H         -3.7239516491        0.4971172366       -4.7003526482
 O          4.7883672558        1.9595756089       -3.9635298940
 H          4.5201136763        2.7985249070       -4.4098771593
 H          5.4850177563        2.2029958863       -3.3207606050
 O         -5.1888707268        1.8005153898        3.3115415364
 H         -4.8708242481        1.6787373522        4.2280605202
 H         -5.6297085116        0.9776162426        3.0734956023
 O          2.5891218125       -4.9314639073       -2.7931874082
 H          3.5504692334       -4.9880324136       -2.8990419837
 H          2.2302127292       -4.7182753153       -3.6737992600
 O         -4.4884637558        1.4658915900        0.1742942612
 H         -5.2891585011        1.9343965835        0.4779229888
 H         -3.7819407351        2.1378026148        0.1204362625
 O         -6.7078035870       -0.4998501822        2.2317146727
 H         -7.0617791860       -1.3944460038        2.2487925723
 H         -7.0612771794       -0.0589291797        1.4379092397
 O         -1.9099196915       -6.2371635327        0.2886001834
 H         -2.6076461895       -6.3329165082       -0.4102466491
 H         -1.2490676932       -6.9084792815        0.1076370738
 O          4.2626713894       -0.8514685207        7.1181251734
 H          4.3929568356       -1.7828102010        6.8772884666
 H          3.4121115866       -0.8241645986        7.5831009318
 O         -3.8689496975       -3.0900904611       -0.2444329631
 H         -4.1329189868       -2.3657367730        0.3609815083
 H         -3.3864484114       -2.6264113477       -0.9610065925
 O          4.0077402952        2.9859423117        3.4626364096
 H          3.5919138096        3.8556245996        3.6506367046
 H          3.8098789600        2.4042516377        4.2072637185
 O          1.0504650899       -4.6426749403        6.4826611939
 H          0.5593511913       -4.2631423810        7.2175815127
 H          0.4471136191       -5.2291083251        6.0119773079
 O          6.5662280257        2.1602288336       -1.9876426653
 H          6.8059558887        2.9417064332       -1.4793829038
 H          5.9568646230        1.6587048177       -1.3929764450
 O         -0.8611818146        6.2889664630        4.8659869833
 H         -0.2752777578        6.4772009262        5.6022278630
 H         -0.6269161557        5.3784386658        4.5888190905
 O         -1.0771129792        2.5112719172        7.0049901245
 H         -1.4746981656        1.6588688406        7.1912561331
 H         -0.1288445255        2.3286118379        6.8701740635
 O          1.5050437040        4.6343226575        6.2716493930
 H          1.7601707030        3.8968435852        6.8335126661
 H          0.8361462864        4.2534793126        5.6659268157
 O          3.0628719390        7.1041741142       -0.2212179105
 H          3.5984697822        6.5987455048        0.4324826229
 H          2.7117888801        7.8565908518        0.2559996561
 O         -2.2363089571        6.9548562468       -2.7026395153
 H         -1.4926172131        6.4862742753       -3.1202906230
 H         -2.3149192966        7.8005769083       -3.1422822968
 O         -0.9858103909       -3.3058179734        4.8856346856
 H         -0.6263819238       -2.8481899784        4.0956948845
 H         -0.8921919702       -4.2628355587        4.7240886518
 O         -3.4948604922       -2.4826755532        5.1287482457
 H         -4.0206508779       -2.9888695659        4.4877323401
 H         -2.5994154762       -2.8868572254        5.0954971192
 O         -0.6132547964        0.6000260849       -5.8188467667
 H          0.1564017900        1.0174224827       -5.3679523229
 H         -1.3918460198        0.7618129671       -5.2468423905
 O         -2.7609519986        4.2824332800        5.7782567642
 H         -2.1225587585        3.6944284538        6.2296848383
 H         -2.3189220343        5.1350305142        5.6890281366
 O          6.3703163033        2.1255938099        2.3138302091
 H          5.6997347662        2.5903919308        2.8419316488
 H          6.3882677642        2.6341593172        1.4771729582
 O          0.8557067007        6.4736724000        2.5989458209
 H          0.2469421833        6.7449234799        3.2974004467
 H          0.3606862660        5.8178461942        2.0766726402
 O         -4.7460949254        4.2090245930       -5.0152797350
 H         -4.8776916456        4.6371030508       -4.1519424875
 H         -3.7736624457        4.1216902806       -5.0840720814
 O          7.4095658992       -0.4590747230       -2.2666359247
 H          7.7407297922       -0.5853051978       -1.3672943559
 H          7.2413607346        0.4976940261       -2.3242728266
 O          6.0669171748        3.8160355272        0.2390191914
 H          5.7933893834        4.5891936301        0.7515767027
 H          5.2301407561        3.5018409104       -0.1613040553
 O          7.2939680774       -0.3905901327        0.6177699933
 H          6.4556142824       -0.0132809682        0.2479847199
 H          7.5346051562        0.2050795015        1.3300197765
 O         -5.0591617818        5.1312398529        0.1867040099
 H         -4.6673698558        5.8825766042        0.6463419238
 H         -4.9408392000        5.2540528097       -0.7825800030
 O          6.1607501191       -2.8503967814        0.7455247163
 H          6.3170377120       -3.3778863446        1.5592997553
 H          6.7174759120       -2.0515774726        0.8206144448
 O          2.8946299409        5.3489973939        4.0192728416
 H          2.5000261111        5.2017904597        4.8981846096
 H          2.1797819357        5.7271759223        3.4640873996
 O         -1.5594678669        4.4261086155       -1.8186224359
 H         -0.7448584279        4.7628163597       -1.4219998240
 H         -1.3143130046        3.6486752834       -2.3506779183
 O          1.3038749436        4.1693917418       -5.9132856963
 H          1.3931557135        3.3101398558       -5.4526263361
 H          0.7637932738        3.9790498683       -6.6891214335
 O          5.2000349811       -0.0975429904        3.1427754164
 H          4.6145908065        0.2944452915        3.8230694075
 H          5.6723171813        0.6625271782        2.7374546356
 O         -0.9720023853        2.9535329970       -7.2282641084
 H         -0.7116721871        2.0894526255       -6.8591116759
 H         -1.3138638873        3.4642884486       -6.4581749977
 O         -2.4015884468       -0.4684739432       -7.6294185701
 H         -1.6849268012       -0.1410436976       -7.0594932297
 H         -2.9321999128        0.3077944537       -7.8409908282
 O         -2.0490355802        4.0404220682       -5.0566167262
 H         -1.7633037873        3.2961129088       -4.4874849557
 H         -1.5159782924        4.7935296315       -4.7297284839
 O          0.8901975463       -1.7150270775       -5.9464080013
 H          1.7365720142       -1.2639923136       -6.0727099204
 H          0.2500284443       -1.0145347492       -5.7245194536
 O         -0.9733898780       -7.2016834124       -2.4173476186
 H         -0.7271307141       -6.8952962237       -3.3031001538
 H         -1.9325157161       -7.1259355340       -2.3568485913
 O          1.5468454050       -0.9050282669        7.5033052962
 H          1.6439261313       -1.2311664510        6.5920058006
 H          0.7809442155       -1.3995099864        7.8320763078
