  99
       -167.97992417
 O          1.3208621531       -2.5537580511       -0.1944471215
 H          1.3894241042       -2.9133194542        0.7289761644
 H          2.2161111183       -2.6099680013       -0.5724971381
 O          5.4482546015        2.1648522182       -1.5775607748
 H          4.6451648758        2.6497502192       -1.7981874923
 H          5.3591646498        1.2815415113       -1.9853156022
 O          2.6765777473        3.3116985210       -1.4740402121
 H          2.7949791922        3.2849795008       -0.5057799062
 H          1.8464216184        3.7987177206       -1.6272457987
 O         -3.5638244372       -0.9018819262       -2.4151185684
 H         -2.6512062136       -0.9724014272       -2.7555080947
 H         -3.6317064772        0.0273925312       -2.1256660006
 O          0.0444672975        1.1148823983       -3.8383141266
 H          0.9917059616        1.0352876795       -3.6050770518
 H         -0.3291901920        0.2358785577       -3.6718962548
 O         -2.9091492496       -2.7893609379       -0.5819056277
 H         -3.2081042065       -2.1304402845       -1.2440133196
 H         -2.1471925434       -3.2474009475       -0.9823876304
 O          0.9533823161        1.8414893017        1.9723735746
 H          1.7946650688        2.3237470934        1.8398916948
 H          0.2737038299        2.4569600789        1.6313691477
 O          4.7859155223       -0.2913842980       -2.6306788914
 H          3.8981100284        0.0761346067       -2.7914653713
 H          4.6331330535       -1.1010596114       -2.1269464531
 O         -5.6992622819       -2.4462331362       -1.5044350909
 H         -5.1578421898       -1.8686564618       -2.0649207687
 H         -5.0963572061       -3.1159612856       -1.1648423370
 O          0.3071416913        4.6789621831       -1.8637789198
 H         -0.3741433592        4.1859479001       -2.3795016414
 H          0.4860271334        5.4716734437       -2.3698976429
 O          3.1299659477        3.2428061393        1.2441384855
 H          3.3662155643        4.0737827190        1.6553202124
 H          3.9814350711        2.6964797721        1.2172965021
 O          2.3351957837        0.8800739712       -2.4760308726
 H          2.5155300124        1.8079309952       -2.1973436121
 H          2.0777955479        0.4350337742       -1.6543031341
 O         -0.5599640446       -3.7385313824       -1.6152416209
 H          0.1356222607       -3.3229825717       -1.0435371660
 H         -0.3348500998       -4.6655235211       -1.6866693645
 O         -0.8737450415       -1.1262200888       -2.5163535194
 H         -0.6459972230       -2.0637178314       -2.5265740878
 H         -0.8469228373       -0.8685866211       -1.5723773175
 O         -0.6201723322        3.5518153511        0.5803378973
 H         -0.2399064100        4.3411086198        0.1838616337
 H         -0.6095915254        2.8973967588       -0.1497826463
 O         -1.5098319155        3.3822521423       -3.3723388824
 H         -2.2299787675        2.9270000698       -2.9136923213
 H         -1.0009099812        2.6840347392       -3.8124428711
 O         -0.4816796173        1.5890692943       -1.2230668032
 H         -0.2572013065        1.5760608303       -2.1747778329
 H          0.1566096421        1.0009004678       -0.7818285772
 O          0.9545009708       -0.0470715543        3.9381827441
 H          0.8877109548        0.7276115710        3.3522480497
 H          0.2468766853       -0.6487261646        3.6634271025
 O          1.4635958837        0.1189541678        0.0439088881
 H          1.1803486495        0.6173036358        0.8474284159
 H          1.1386966530       -0.8032257994        0.0867737197
 O         -2.8801800476       -3.3682100145        2.1492036197
 H         -3.6598571447       -2.9047596961        2.4933895809
 H         -2.9454834756       -3.3002965706        1.1853232419
 O         -1.2449344435       -0.7609638795        0.2248567570
 H         -1.9155973433       -1.4545388851        0.0930815365
 H         -1.7433793591        0.0596219429        0.5022074218
 O          3.9988014666       -2.4423753054       -0.8553658859
 H          4.6522054070       -3.1145252066       -0.6626523383
 H          4.0944009213       -1.7455485676       -0.1597584174
 O          3.9242341546       -0.5263112349        0.9649163369
 H          3.7106201278       -0.8449472354        1.8635239344
 H          3.0863083757       -0.1674615468        0.6029603703
 O          1.4705044949       -3.2813615260        2.3132856475
 H          2.1694486892       -2.7567229469        2.7354561893
 H          0.6309180575       -2.8683995546        2.5948223480
 O         -0.7986915411       -1.8043898029        2.6625652870
 H         -0.8135258413       -1.3731610285        1.7775557578
 H         -1.5022658125       -2.4926499568        2.6007795564
 O         -6.2340536130       -0.9184458880        0.6215591660
 H         -7.1680490678       -0.7096459264        0.5975616080
 H         -6.0601287510       -1.4876010695       -0.1647962915
 O          3.1334899995       -1.3603292494        3.4034516644
 H          2.3289580193       -0.8172631644        3.6497394465
 H          3.7115387620       -1.3470257639        4.1655841295
 O         -5.0229946137       -1.7703304182        2.8700100464
 H         -5.7380897379       -1.9282666150        3.4866534391
 H         -5.4274349951       -1.4237580534        2.0453597538
 O          5.2768460322        1.8445800707        1.0592111435
 H          5.5076645182        2.0091317033        0.1150761765
 H          4.9560773130        0.9253464340        1.0767118195
 O         -2.8656426477       -0.1268854387        3.6428422380
 H         -2.1001384235       -0.7097964310        3.5323410002
 H         -3.6443016599       -0.6759472674        3.4710615552
 O         -2.5910579359        1.2626483292        1.3236560516
 H         -2.1242220788        2.0947205646        1.4443824117
 H         -2.7456659272        0.8781414813        2.2163703088
 O         -3.1726040828        1.5833062209       -1.4566158560
 H         -3.5278189658        1.6264248997       -0.5628288099
 H         -2.2039640390        1.5313748927       -1.3293768762
 O          7.3677047834       -0.1209394378        0.5020038402
 H          7.0290748810        0.6279141330        1.0045743632
 H          7.2743969605        0.1147238326       -0.4239210898
