  144
       -244.32488631
 O         -3.6272055878        3.5727020953        1.8702903986
 H         -2.7435780290        3.9095892060        2.0736920858
 H         -3.8025939784        3.8803003159        0.9575690459
 O          0.5761141597        2.4322975099        2.5900432134
 H         -0.0177509142        3.1920562956        2.4246515174
 H          1.4747919112        2.8493455711        2.6394968922
 O         -3.7131438975       -1.5387817596       -2.3657438987
 H         -2.9695161989       -2.1383810692       -2.1885448168
 H         -3.5363077971       -1.1429573932       -3.2333401944
 O          0.3672136118       -2.7005972761        3.5997456580
 H          1.2400148441       -2.9788748747        3.9732895292
 H         -0.2111551098       -3.4935394055        3.5072673206
 O          5.6621308455        0.8378963133        0.7445958131
 H          5.5913474432        1.5216355907        0.0514384967
 H          4.7850349479        0.3740810512        0.7488711700
 O         -0.7845244036       -0.9673233359        5.2225546818
 H         -0.3655426346       -1.6523436682        4.6406755944
 H         -0.6984730006       -1.2847574858        6.1224692058
 O         -1.3850781218       -4.5514585814        2.9117412397
 H         -2.2235260705       -4.0709937354        3.0377630941
 H         -1.2834500628       -4.6734176690        1.9578969652
 O         -1.1278463571       -0.4331394117       -2.3123235736
 H         -0.9921250157       -0.1855631801       -3.2457022412
 H         -0.3017721565       -0.8140738548       -1.9741457766
 O          5.2577017264        2.5639966981       -1.2936419195
 H          4.3607736392        2.8954505476       -1.0163632786
 H          5.7475537836        3.3214794464       -1.6125957755
 O          2.9010010607        3.3462687080       -0.4606134701
 H          2.4262728610        2.5172146200       -0.1996334159
 H          2.3965526878        3.6513564430       -1.2280192075
 O          4.4570538064       -2.6646924623       -0.2371528666
 H          4.0916697350       -2.7756223947       -1.1458284792
 H          5.3480393783       -2.3003248874       -0.3709213697
 O          1.2960641492        0.7149360271        4.6260914432
 H          0.9727015320        1.4006163624        4.0239175952
 H          0.5215136203        0.2020776542        4.9085238747
 O         -3.4663044019       -0.8268196233        4.5930602542
 H         -3.6808005824       -0.0697769766        4.0245258817
 H         -2.5409921955       -0.7259060704        4.8738493084
 O         -5.8088988998        0.7822030237        0.5846322205
 H         -6.2614214522        1.6229086342        0.4975250186
 H         -6.0917076420        0.2110243464       -0.1494913962
 O          1.1319631466       -1.4176119620       -1.0821900036
 H          1.1723667858       -2.1139027022       -1.7728841678
 H          1.2688665493       -1.8762300479       -0.2394724003
 O          1.5201997658        1.2469411075        0.3441249438
 H          1.2151174423        1.5703488614        1.2130616494
 H          2.1571087422        0.5199289428        0.5003031979
 O          0.8506692301       -3.0560973718       -3.1567843247
 H          0.9158305647       -2.3360176282       -3.8305887975
 H         -0.0933868179       -3.2189316614       -3.0103191004
 O         -3.6583737068       -3.0188624672        3.1895156126
 H         -4.4455691804       -3.4865915313        3.4683400603
 H         -3.5861383512       -2.2243054138        3.7872867084
 O          1.2923217674       -2.9957189746        1.1294907476
 H          0.9409183716       -2.7609443549        2.0202410218
 H          2.1083230334       -3.4990277695        1.2977496435
 O         -1.3252728477        3.0747106591       -3.9077124821
 H         -1.4801797952        3.8533859282       -4.4426743247
 H         -2.1501502722        2.9231966044       -3.3856439308
 O         -0.9741534278        4.4961663836        1.8657291226
 H         -0.9000601053        4.4920166464        0.8798208322
 H         -0.7856881523        5.3884422920        2.1571375241
 O         -1.1299990103        0.5239642226       -4.8428792194
 H         -2.0576488994        0.2885990729       -4.9867584409
 H         -1.1169907582        1.4700636522       -4.6072784990
 O          3.6345025134       -4.2911557421        1.6779715617
 H          3.9491284192       -5.1886901309        1.5697481096
 H          4.0798955788       -3.7450176151        0.9920406152
 O         -6.1586729681       -0.7223353958       -1.7033080090
 H         -6.7590142370       -1.4689121809       -1.7118604761
 H         -5.2543416601       -1.0944615117       -1.8198196804
 O         -1.7373136986       -3.5508920576       -2.1494828236
 H         -1.3740938248       -3.8250459394       -1.2827882306
 H         -2.1980004291       -4.3131074617       -2.5029836224
 O         -3.6207263975        2.6045646905       -2.6521248302
 H         -3.4445299621        1.9365770454       -1.9357941500
 H         -4.3800432631        2.2571773241       -3.1361399744
 O          3.6088813720       -2.7597338544       -2.7364771569
 H          3.7818665329       -1.9091509641       -3.1515892633
 H          2.7215493124       -3.0326021913       -3.0038484674
 O         -3.9435096921        1.0775670075        2.6166076104
 H         -3.9339879355        2.0531566266        2.4606151125
 H         -4.6482039338        0.7337645041        2.0494727040
 O          2.1289567280        0.6169434400       -2.5422651210
 H          3.0914272381        0.4782156010       -2.5608070948
 H          1.8011870905        0.0146981118       -1.8483000402
 O         -3.3988446463        0.7953017363       -0.8047515470
 H         -3.3691950250       -0.0654575499       -1.2512692700
 H         -4.1316586694        0.7510692406       -0.1741028842
 O          2.9755939576        3.4752013191        2.3893310412
 H          3.1148876964        3.6074409740        1.4411581093
 H          3.6831933393        2.8920812106        2.7124528445
 O         -5.8149128251        1.1437291038       -3.6685387098
 H         -6.6512480840        1.5134970786       -3.9537222817
 H         -6.0043686502        0.5236239566       -2.9343474532
 O          3.3799922147       -0.5041428661        3.5586478280
 H          2.5753343003       -0.1100924284        3.9750633435
 H          4.0489630484        0.1925342532        3.6403233504
 O          5.0132400420        1.7443751433        3.1715367750
 H          5.3920641589        1.4506338217        2.3118598031
 H          5.7335365426        2.0810940355        3.7041806610
 O         -0.5806449288       -4.5632672068        0.1279316502
 H          0.1470199722       -3.9670394313        0.4438905222
 H         -0.1648685018       -5.3951598386       -0.1043619704
 O          1.1382113779        3.2035046333       -2.5426343558
 H          0.3201293822        3.1765856022       -3.0606136861
 H          1.4983199128        2.3000009159       -2.6004802754
 O         -3.8023247826       -0.2690434740       -4.8763668171
 H         -4.5030763442        0.3216631062       -4.5450706238
 H         -4.1466862800       -0.7121695759       -5.6525697817
 O         -0.8455430081        4.3251858798       -0.7811226001
 H         -0.9765436392        3.3509603486       -0.8581113381
 H         -0.0492855834        4.4900536281       -1.2963622316
 O          1.2285259572       -0.8927030494       -4.6202746487
 H          1.6083712417       -0.2704802972       -3.9670691446
 H          0.4515929528       -0.4443973513       -4.9782560040
 O         -3.6557243852        4.5119122923       -0.6695071479
 H         -2.7163065430        4.7323571074       -0.7205137673
 H         -3.7990696578        3.8961362882       -1.4060139842
 O          3.3899789989       -0.5083259679        0.9196694767
 H          3.3414973942       -0.6330904767        1.8968498144
 H          3.6539809626       -1.3608550492        0.5135921459
 O          2.8910372885       -3.1567534565        4.1718347789
 H          3.2043804462       -2.2397279344        4.0929990020
 H          3.2636918810       -3.6300441234        3.4150714690
 O          4.7937260288        0.0854337505       -2.4738937962
 H          5.0577067022        0.9822233864       -2.2166233549
 H          5.4115156131       -0.5056518090       -2.0218271687
 O          6.6684226394       -1.1550589799       -0.7180977490
 H          7.6196373813       -1.2527255970       -0.7475116645
 H          6.4635970138       -0.4162016349       -0.0989153427
 O         -0.8399255742        1.6850676300       -0.8108520712
 H         -1.0912591902        0.9856782477       -1.4600778094
 H          0.1044687711        1.5428860979       -0.6171578757
 O         -2.5734340779       -2.4284126124        0.6196498436
 H         -2.1076773140       -1.5692775340        0.7226102318
 H         -2.8721193633       -2.6256106446        1.5151195249
 O         -1.5679392890       -0.0565851366        1.3798338220
 H         -2.2768940067        0.3357310452        1.9074448003
 H         -1.3897421653        0.5767040841        0.6673567747
 O         -4.7645455192       -3.5862612248       -0.4358356790
 H         -4.6792572952       -4.3581143894        0.1246994425
 H         -3.9803174398       -3.0391122043       -0.2074586843
