  144
       -244.31613842
 O          2.0461712546       -0.5598202962       -1.5185160301
 H          2.8911682300       -0.6623431923       -1.9829271436
 H          1.4113868662       -1.0892003438       -2.0353217082
 O          1.3576461501       -1.6420399119        0.8523071963
 H          1.7322331967       -2.5217747135        0.9149519516
 H          1.7220727093       -1.2270919867        0.0485144505
 O          2.9989796863       -3.2920869194       -3.3329526493
 H          3.2941983157       -3.4679784050       -2.4012796480
 H          3.2871043003       -4.0431746941       -3.8516955903
 O         -4.8226538876        2.0466061997       -1.9760770316
 H         -4.5498932007        1.1452416802       -1.7287850513
 H         -5.6922802226        2.1652288255       -1.5810030221
 O          2.9160414094       -0.5997052481        3.2553826171
 H          1.9775068989       -0.3047410176        3.2193723951
 H          3.4039388042        0.0578030084        3.7733236585
 O          2.3315904805       -3.2321339727        3.5964609505
 H          1.3704155171       -3.0684684533        3.6336285349
 H          2.7243432826       -2.3430051753        3.5306599681
 O          6.9531921232        0.9033415258       -0.4335399978
 H          6.4752069799        1.2617895959       -1.2288289208
 H          7.8878617305        1.0300843928       -0.5960723916
 O         -3.0454625841        2.3900676702       -4.0660656638
 H         -3.7342511273        2.2996508054       -3.3867523909
 H         -3.4889426809        2.6698197967       -4.8670899294
 O         -6.4125191296       -0.5566535173       -2.6009981035
 H         -7.0426102162       -0.6096694180       -3.3208583996
 H         -5.5209083852       -0.6273336629       -3.0231231211
 O          1.4699686558        4.3204073497       -1.6410396628
 H          0.6487276210        4.3287999570       -2.1501336368
 H          1.1827180417        4.3858308202       -0.7129705455
 O         -2.3515873826        1.0895800804        2.1357327333
 H         -3.2988262467        1.0021716762        1.9513247762
 H         -2.1326427552        2.0520339179        2.0650536545
 O         -2.8826633915        3.3974643054       -0.4758763083
 H         -3.6557956753        3.1014404229       -0.9766094992
 H         -2.2057431625        3.6166148257       -1.1441110822
 O         -0.2858822940       -4.1574411948        1.1134936649
 H          0.6598834704       -4.3752401588        1.1360789869
 H         -0.4364878708       -3.5741453708        1.8769961187
 O         -3.6700247743       -2.8888453348       -1.8293727478
 H         -3.6475746473       -2.0170812096       -1.3895938955
 H         -2.8365996094       -3.3356858962       -1.6163626605
 O          0.4813259452       -2.3154757551       -2.9086691683
 H          1.2948476307       -2.7621172988       -3.2034091755
 H         -0.0228652317       -2.9529205756       -2.3698814906
 O         -2.6135683731       -2.1019961342        4.5199561968
 H         -2.4950985973       -1.1323264906        4.6670679125
 H         -2.9710633028       -2.4601596110        5.3322309309
 O         -1.1955396408       -0.4292979598       -3.9330996524
 H         -0.6341864206       -1.1830105479       -3.6684395482
 H         -1.0220501308       -0.2620563495       -4.8607881087
 O         -5.8026586798       -2.1569342776        1.5306179177
 H         -6.0119026387       -2.3960378725        0.5834746578
 H         -6.4023078066       -2.6672315483        2.0747806300
 O         -1.1069565014       -3.9368672405       -1.3537210357
 H         -0.8430355970       -3.9689821978       -0.3948342767
 H         -1.1787900697       -4.8522882771       -1.6273866244
 O          4.3062187311       -0.8646578418       -3.0692894744
 H          3.9922188672       -1.7225425946       -3.3994811439
 H          4.7454891441       -1.0520790995       -2.2051033211
 O          4.4554441568        1.5108853692        4.1414322392
 H          4.9929995346        1.6094324495        3.3329483506
 H          5.0473260983        1.6149129204        4.8866709323
 O         -6.2515746562       -2.7758584859       -0.9617253096
 H         -5.3995910249       -3.1181249106       -1.2808334797
 H         -6.4223893732       -1.9956863608       -1.5170288275
 O          3.9013595087       -3.6070384593       -0.8947065373
 H          3.4071090629       -3.8768127190       -0.1026817963
 H          4.4311251758       -2.8329637889       -0.6480204676
 O          3.4633519707        0.3911102548        0.8609973946
 H          3.2283464279       -0.1281014622        1.6656647363
 H          4.1632551292        1.0055480474        1.1565764495
 O         -0.1097104107        2.5629907389        4.0484773060
 H          0.7546919542        2.9407434518        3.8289947038
 H         -0.7689751839        3.0752742785        3.5616998328
 O          3.8463705883        3.7033759634        0.6598700503
 H          3.5866741510        3.1167157545       -0.0870225763
 H          3.7503531910        4.5988659150        0.3327559775
 O          0.9750988711        1.3627641490        0.3817622044
 H          0.7460903286        1.3204782224       -0.5585901387
 H          1.8985369604        1.0393896117        0.4667186475
 O          5.5352465797        1.6598154500       -2.5229255378
 H          5.3269598181        0.8365575736       -2.9794231203
 H          4.6864828237        1.9874102378       -2.1644173319
 O         -1.7718388535        3.6525909373        1.9466825289
 H         -2.3739207843        3.7731361116        1.1918432070
 H         -0.8945732937        3.8711477763        1.5692077772
 O         -3.1236357281       -2.6236534943        1.8143137512
 H         -2.9887007914       -2.5425865551        2.7704243297
 H         -4.0777988031       -2.5018201126        1.6675365905
 O          2.4756324208        3.1416286004        3.0222229219
 H          3.0207224720        3.3192288152        2.2366204531
 H          3.0453786242        2.6230582296        3.6069025649
 O         -1.0965109584        3.6047955122       -2.5341814518
 H         -1.7513221068        3.3879220558       -3.2163231653
 H         -0.5746218001        2.7829773144       -2.4387952828
 O          5.5718019504        1.8992704029        1.6804463344
 H          6.1941214196        1.5645709135        1.0069389076
 H          5.2185830308        2.7389053190        1.3432821201
 O          2.4635299771       -4.3985195235        1.3150564999
 H          2.7528071564       -5.3014530999        1.4511987346
 H          2.4976626969       -3.9643077627        2.2290733451
 O          2.5255404511        1.1036666762       -4.0898865316
 H          3.0300328563        1.8727944218       -4.3587963502
 H          3.1639853122        0.4138154862       -3.8542783304
 O          0.4144484871        0.2463095887        2.8575376080
 H          0.5637657276        0.5799992644        1.9574437777
 H          0.1607323485        1.0332111083        3.3868727565
 O         -4.9163441813        0.3904425232        1.3424812117
 H         -5.6440923435        0.8223656957        0.8635438843
 H         -5.2678167619       -0.4731569363        1.6225362163
 O         -2.1898511319        0.4954240976        4.7559279268
 H         -2.2577678019        0.7507193200        3.8118366732
 H         -1.4753683083        1.0262814584        5.1154752572
 O         -4.0982635615       -1.0380263784       -3.8375413834
 H         -3.2547173001       -0.5710338090       -3.8838022345
 H         -3.9180876302       -1.8611387773       -3.3529252522
 O         -6.9309127575        1.0322898298       -0.4267602667
 H         -7.8590935732        0.9887305817       -0.1956984567
 H         -6.7875269320        0.4041951753       -1.1612665621
 O          0.7178710490        3.9377692806        0.9749658199
 H          1.2723430811        4.0920832964        1.7456253352
 H          0.8038571231        2.9738961784        0.7810858311
 O         -0.2386764527       -2.4042307152        3.2541329778
 H         -0.0071433524       -1.4645086450        3.1495602576
 H         -1.0337513695       -2.4245314360        3.8112490359
 O          0.3365108229        1.3325128973       -2.4670744294
 H          1.1328555791        1.3474486640       -3.0311539861
 H         -0.2940144924        0.7816859348       -2.9639380320
 O          3.1183612162        2.2667778479       -1.4782442094
 H          2.4681462062        2.9760486253       -1.7055608265
 H          2.6499211657        1.4210920382       -1.4736449248
 O          5.1032203157       -1.1518929629       -0.5528732822
 H          5.9295200480       -0.6658886605       -0.4157329625
 H          4.4203235365       -0.6292844497       -0.0654555056
 O         -3.6827948179       -0.2258193075       -1.0272058958
 H         -4.0104037422       -0.0480638173       -0.1273673662
 H         -2.7195201112       -0.3169778044       -0.8987283927
 O         -1.4332016420       -1.3100244052       -0.0790104014
 H         -0.5427884762       -1.2597940052        0.2889990405
 H         -1.9625463944       -1.7505912852        0.6041386023
 O         -4.6776383600        3.1992008066        2.9013052364
 H         -4.7567406220        2.3574828365        2.4418145133
 H         -3.7526240952        3.4544339912        2.8379098638
