  106
       -178.38736130
 H         -0.0543971305        0.5778615482       -1.2434912340
 O          1.1932107924        0.0425572186       -1.7458751773
 H          0.9123664766       -0.7381149251       -2.2605106900
 H          1.8470048691       -0.2729509191       -1.0943199310
 O          1.5522630276       -3.7704931589       -1.7573954198
 H          1.7290656906       -3.4625026459       -0.8495566775
 H          0.7651941204       -4.3301586890       -1.6695848964
 O          2.5222700784        2.4620761502       -1.1040048884
 H          2.3983362168        2.1456363428       -2.0158154820
 H          1.9743384371        1.8705999920       -0.5440283899
 O         -2.7504459420       -1.3654940298       -1.8246552692
 H         -2.8220316953       -0.4713939078       -2.2100068342
 H         -1.8627704014       -1.4277599447       -1.3963006500
 O          1.0738077314       -1.0597856602        2.2474412029
 H          0.2885492548       -1.4742843269        2.6967645958
 H          1.7323247962       -0.8802948788        2.9343691021
 O         -0.9337230113       -2.3380200155        3.2874455970
 H         -1.4134830675       -2.7773964907        2.5633603455
 H         -1.5852765183       -1.7894611058        3.7507904851
 O         -1.0380214417       -4.6673423856       -1.1802910772
 H         -1.2606148298       -5.5965630440       -1.2416424463
 H         -1.3866692660       -4.2419223122       -2.0170485508
 O          4.6742517713        0.3906431089        1.6677988071
 H          4.3996813132        1.3390556927        1.5295226895
 H          5.6305115761        0.3777254928        1.6106552115
 O         -0.9742277675        3.4354376485       -0.4006720337
 H         -1.2091785436        3.4089287919        0.5614188471
 H         -0.1693760890        3.9744848815       -0.4715068818
 O         -1.5292306004       -0.1835603780        1.2287419492
 H         -2.4757823756       -0.2505846328        1.4786774054
 H         -1.0897151011        0.2498882785        1.9876608012
 O         -2.2457227658       -3.3871880202        1.1141723376
 H         -3.0746330151       -2.9682912558        0.8371222257
 H         -1.9564216768       -3.9545432815        0.3878455762
 O         -3.5565284569        2.9338563992       -1.2225970452
 H         -3.3984831114        2.2173978697       -1.8627884447
 H         -2.7013018337        3.3729934268       -1.1102327971
 O          1.4233804246        4.7030837412       -0.3318243957
 H          1.7963306637        5.4926906117       -0.7226538174
 H          1.8988497785        3.9208281678       -0.7215606268
 O         -4.2228791547        2.4299762506        1.2491509704
 H         -4.0139309128        2.5746630923        0.2846690300
 H         -4.9946647811        2.9656775991        1.4340823691
 O         -2.8000344366       -0.5707847546        4.3774315001
 H         -3.3807959074       -0.7674593440        5.1125908820
 H         -3.3650874155       -0.4432512610        3.5911456938
 O         -1.8142145839       -3.3981216503       -3.3285295629
 H         -1.0119812999       -2.9541217285       -3.6405341507
 H         -2.3521116241       -2.6896162676       -2.9259979408
 O          1.5451259234        1.8002177586        4.4122670906
 H          1.7846838401        2.5591915036        3.8712448153
 H          2.2034254622        1.1029945136        4.2542761338
 O          3.2220363577       -0.3033954249        3.8106816079
 H          3.8121667016       -0.0846293398        3.0570063657
 H          3.7593559338       -0.7067643754        4.4928509482
 O         -0.5010416458        0.7127172876       -4.0314793270
 H         -0.3025588604       -0.2274484579       -3.9530190385
 H          0.3239186063        1.1765325814       -3.8132260276
 O         -4.0696099482       -0.1608341946        2.0080692049
 H         -4.2650006503        0.7509483832        1.7163368077
 H         -4.4257892931       -0.7817379553        1.3487435543
 O          1.9821506065       -3.0969617595        0.8740300178
 H          1.5312941224       -2.3700927979        1.3787887545
 H          2.0597592223       -3.8432943062        1.4679759201
 O          3.8457607471       -2.2359253148       -2.5687180408
 H          3.7788744714       -1.7012504443       -1.7554223314
 H          3.2700974646       -2.9979246965       -2.4286398441
 O          2.1008185603        1.7144756719       -3.7535846975
 H          2.4167350248        0.8102450400       -3.9584481642
 H          2.3863562791        2.2795552497       -4.4722107980
 O         -0.9983205383        0.9531198067       -0.9647629681
 H         -1.2225591088        0.5141520624       -0.0612551675
 H         -0.9095084472        1.9518601349       -0.7904760728
 O          1.2231495503        3.6602073034        2.1937928879
 H          0.3248445129        3.8093186812        2.5106590955
 H          1.3021616556        4.2002753813        1.3856636813
 O         -4.4581631351       -1.9987681571        0.0600611933
 H         -5.2263094295       -2.4162136128       -0.3290995038
 H         -3.8672657092       -1.7242682957       -0.6889193906
 O         -2.9341399593        1.0200778365       -3.0795169365
 H         -1.9995940119        1.0187478682       -3.4038815679
 H         -3.4896406111        1.0576219715       -3.8586998851
 O          0.5879796154       -1.9501850627       -3.4923715794
 H          0.9496022149       -2.6358626837       -2.8859647770
 H          1.3177667802       -1.6972274820       -4.0805684073
 O         -1.7080647603        3.2304152726        2.1222297490
 H         -1.3947343224        2.4525677055        2.6295235268
 H         -2.6508244490        3.0579937374        1.9586463333
 O         -0.4301477630       -1.8583930183       -0.5905285672
 H         -0.6559299048       -1.5164902798        0.2879647480
 H         -0.4797211676       -2.8162755446       -0.5319339549
 O          1.0279506677        1.2708114556        0.8007774492
 H          1.0754628517        0.4306764347        1.2873929293
 H          1.0495105814        1.9857465706        1.4536265632
 O          2.8660311697       -0.8006476559       -4.5176225258
 H          3.3261111736       -1.3027856079       -3.7902357542
 H          3.3965190872       -0.9211975630       -5.3054440764
 O          3.8979477972        2.8392136894        1.2242109314
 H          3.1428376986        3.1680096807        1.7237077337
 H          3.6042920959        2.7810401943        0.2987087692
 O         -0.7943592671        1.0840692142        3.4346569404
 H         -1.3786360193        0.6251737523        4.0533354502
 H          0.0462960987        1.2957183133        3.9024649965
 O          3.2374029485       -0.9401745132       -0.2622386717
 H          2.9095144980       -1.7308227353        0.1934337469
 H          3.7594740085       -0.4415483349        0.3887457096
