  131
       -218.46035991
 H          0.3774962545       -2.1381906045       -0.1932177861
 C          0.5323123755       -1.0589781553       -0.1140972843
 H          0.1026431025       -0.7060944822        0.8271865823
 C         -0.1463063365       -0.3756576448       -1.2981564199
 H          0.4405331594       -0.5810472463       -2.1996132529
 H         -0.1854373261        0.7048396038       -1.1542447702
 N         -1.5128783960       -0.8647804194       -1.4026424948
 H         -1.9700645466       -0.4290345485       -2.1922240146
 H         -1.4968151746       -1.8730957407       -1.5534568754
 O          1.9269370977       -0.7791889705       -0.1344931645
 H          2.3294212760       -1.2578333253        0.6337724856
 O          0.1072382331       -1.3420512802        3.4826893003
 H         -0.6629835953       -0.8147547316        3.2320072110
 H          0.0312027256       -2.2036830151        3.0523183715
 O          2.9940287435       -1.7363157229       -2.4661173620
 H          2.5209382921       -1.4322506767       -1.6679213735
 H          3.8814567780       -1.3433997760       -2.3688409980
 O          0.2796969044       -3.6513501576        1.9234551780
 H          0.6361761788       -4.1121333423        1.1415706075
 H         -0.6843382654       -3.6705716900        1.7726322014
 O         -4.4078571609        3.4987947302        1.1130786186
 H         -3.6139253568        3.3621812064        0.5666738439
 H         -5.1324827092        3.0925477314        0.5985487852
 O         -4.0790354704        1.6551998911        2.9775854549
 H         -4.1952267351        2.4400894944        2.3830217310
 H         -4.7088452341        1.0042905312        2.6422406577
 O          1.4170162843        0.2204552017        5.2116180123
 H          0.8618379779        1.0147276670        5.1474658801
 H          0.9029422534       -0.4798150234        4.7689920714
 O         -2.8826226429       -0.9213014859        0.8459656638
 H         -2.4136820671       -0.4081950163        1.5307889461
 H         -2.4004007122       -0.7789772450       -0.0189070963
 O         -0.5321441161        2.1234928706        4.6789097579
 H         -1.2188584885        2.4240059939        5.2747043597
 H         -0.9711994924        1.5238170529        4.0344563945
 O         -0.0811227655        3.3313453638       -3.5772296546
 H         -0.7611757121        2.6491836057       -3.6726638575
 H         -0.3628793323        3.9133599440       -2.8526198400
 O         -0.8125369021        4.8916254163       -1.4118192522
 H         -0.0339352151        4.8510513422       -0.8017209627
 H         -1.0190543495        5.8193039913       -1.5239752540
 O         -4.6939127530       -1.2562153876       -2.1879315255
 H         -5.4341260677       -1.0260416544       -2.7528257898
 H         -4.2594975308       -0.3986076751       -1.9704668408
 O         -2.0093739191        1.3486571525       -4.2296818905
 H         -1.5856823805        0.4739054613       -4.3784664928
 H         -2.1869874733        1.7165357016       -5.0962872445
 O         -5.9428745383        1.8502292324       -0.4336066680
 H         -5.8533328149        1.1231144788        0.2110929860
 H         -5.2717686817        1.6869055643       -1.1090967763
 O         -2.7595134847       -2.7628930806       -3.5579408417
 H         -3.4665068447       -2.2972485038       -3.0815020616
 H         -2.3180824018       -3.3143234433       -2.8875959752
 O          1.7208358282       -0.2155188666       -4.3154871464
 H          0.8192617794       -0.5486705880       -4.4031908678
 H          2.2153106603       -0.8736689328       -3.7885358282
 O         -1.4859947085       -3.8179376310       -1.3828754962
 H         -1.9020786865       -3.8122005872       -0.4983405493
 H         -0.6045135030       -4.2004275971       -1.2342072544
 O          2.6719927647       -2.1270726486        2.0191099227
 H          1.8797394568       -2.6669384856        2.1732437192
 H          2.7258046746       -1.4764352268        2.7352945024
 O         -5.9818622563       -2.5701006772       -0.1758111240
 H         -6.5102189841       -3.2114549103       -0.6522572762
 H         -5.3934151932       -2.1446079023       -0.8332992709
 O          2.2163418503        2.0887901237       -2.9929018586
 H          1.4739447173        2.6600957943       -3.2820987975
 H          2.1032614259        1.2620976037       -3.5079390791
 O         -1.0160349454       -1.1188279521       -4.6510675781
 H         -1.6413128361       -1.7603317149       -4.2145001028
 H         -0.9303847240       -1.4223074614       -5.5559142909
 O          4.6442403789       -3.5526058849        0.5927691966
 H          4.0148716854       -3.0782910504        1.1546550546
 H          5.4202499678       -2.9792523204        0.4988169335
 O         -2.2532214059        2.8072941134       -0.4437663837
 H         -1.8900996642        3.5959918531       -0.8807505312
 H         -1.5405596437        2.5082034734        0.1593620955
 O          2.0038045535        1.8971770480       -0.4044332425
 H          2.0956612595        0.9326649313       -0.2649607174
 H          2.0650175526        2.0053898471       -1.3936371208
 O          4.4372789303        2.6510546701        0.3907209941
 H          4.8647874484        2.7218784494       -0.4884978897
 H          3.5005150857        2.4741182026        0.1560628265
 O         -2.3342696069       -3.5009971801        1.1783478932
 H         -2.5331879859       -2.5411774422        1.0836691908
 H         -3.1603588360       -3.8846300863        1.5211977817
 O          3.4182734902        0.1157884256        3.5860172037
 H          4.1688666326       -0.0440526728        4.1602845889
 H          2.6324007445        0.2040751179        4.2084692782
 O          0.9129048460       -4.8302542067       -0.4720212110
 H          1.7869380518       -4.6097485290       -0.9142014924
 H          0.8937629299       -5.7857610714       -0.4137384308
 O         -3.6815878173        1.1980964827       -2.0324970167
 H         -3.1603222276        1.7071416340       -1.3753034679
 H         -3.2240343874        1.3474564177       -2.8742912357
 O         -4.8891692384       -3.8764142951        1.9953517853
 H         -5.2846445434       -3.4243141790        1.2278741538
 H         -5.0928628690       -3.3367083561        2.7608735348
 O          1.2574170076        4.6855788431        0.2289175436
 H          1.7110938925        3.8688405597       -0.0095562338
 H          1.0949035948        4.6413236332        1.1808655268
 O          4.9374400148        2.2688796142       -2.2116473321
 H          4.0653524019        2.3479691818       -2.6271774518
 H          5.1344021701        1.3207118891       -2.1992947816
 O          3.1994532213       -4.3067992388       -1.5648085936
 H          3.1395623275       -3.4588786187       -2.0424465916
 H          3.8016000362       -4.1417999886       -0.8106363619
 O         -1.7173882121        0.6350887994        2.7323212491
 H         -1.2167210939        1.1773310686        2.0884123379
 H         -2.6167934119        1.0656194762        2.8536352080
 O         -5.4184975498       -0.2250788805        1.2909089298
 H         -5.9544986834       -0.9677598828        0.9961269933
 H         -4.4928069987       -0.4801456755        1.0773176193
 O          4.7642949339        0.1348764153        1.0843793149
 H          4.7605644760        1.1052427961        0.8873354101
 H          4.2026653909        0.0164620929        1.8599682696
 O          6.7140717203       -1.6620200768        0.5529498916
 H          6.1133981899       -0.9610917787        0.8750003134
 H          7.4249554478       -1.7419645644        1.1881553499
 O          0.8591706298        3.7459385799        2.8837212100
 H          1.8046282570        3.4855018487        2.9725069913
 H          0.4183137848        3.3914817876        3.6711976608
 O          3.3797212121        2.8638321907        2.9770208258
 H          3.8900534354        3.0085103901        2.1687952185
 H          3.4036677609        1.9099567914        3.1559696236
 O          5.1998515886       -0.4770699311       -1.5828503560
 H          6.0046443453       -0.9861124983       -1.4511469727
 H          4.8706449146       -0.2967578105       -0.6843078995
 O         -0.2147144865        2.1202424185        1.1151102223
 H          0.5531836881        1.9760750456        0.5294416837
 H          0.1042222958        2.7805152815        1.7775705920
