  91
       -147.81897676
 C         -0.5505858588       -0.6350976997        0.8342157382
 C         -1.6279517934        0.0949271465       -1.2371259390
 C         -0.8107756629       -0.2489460484       -2.4751255245
 C          0.8255414769       -0.4355726642        0.3845122322
 H         -0.6364715069       -1.5299236478        1.4533957027
 H         -2.6850437254        0.1530687195       -1.5016395246
 H         -1.2462905183       -1.0963221327       -2.9966633122
 H          1.4491510542       -1.2459323354        0.0632030173
 H         -0.8927880063        0.2467015913        1.3897028067
 H         -1.3124235598        1.0564493544       -0.8282780657
 H         -0.7961480052        0.6022508314       -3.1484736359
 H          0.2084717970       -0.4952845850       -2.1962727036
 O         -1.5379732083       -0.8939909927       -0.2156591809
 N          1.3395330905        0.8557756733        0.2765531828
 H          2.3363778516        0.9053984244        0.4510411860
 H          0.8423235194        1.5300391855        0.8476967365
 O          1.0063001655       -4.3144163276        0.4733851356
 H          0.6132147210       -4.0236943707        1.3112769020
 H          0.3567243229       -4.0773024247       -0.2090696649
 O         -3.5830551116       -0.9823375778        1.7328619571
 H         -2.9629917489       -0.8489647824        0.9969655303
 H         -3.1726306296       -0.5538825777        2.5037264239
 O         -0.7735682148       -3.2538826581       -1.3841934595
 H         -0.9466143634       -2.3965282097       -0.9453701424
 H         -1.6616334997       -3.6126125290       -1.5160050111
 O         -3.5250772499       -3.4777412510       -1.1270921784
 H         -4.2232523063       -4.0967517254       -1.3436780352
 H         -3.9679281641       -2.6009379373       -1.0531389792
 O         -3.0735946384        3.4361109267       -2.5649705115
 H         -2.9973024063        3.6926751425       -3.4838170228
 H         -2.1909505338        3.5404615051       -2.1738345962
 O          1.4265189491       -2.6510898532       -2.9005856907
 H          0.6090149959       -2.8669398712       -2.4058565447
 H          1.5662749560       -3.3696657207       -3.5182196844
 O         -0.4732568869       -3.5397386476        2.6965270350
 H         -0.4464803326       -4.2596666949        3.3282133973
 H         -1.3763593812       -3.5809122803        2.2807636755
 O          4.1976388208        0.9604153205        0.9638483743
 H          5.0182671397        1.0539872466        1.4483307932
 H          4.3724387247        0.2834473092        0.2447798472
 O          1.1810427179        2.8613981309        2.6413708612
 H          1.5025154151        3.4351570604        3.3380913829
 H          0.1974181043        2.7763699475        2.7999693327
 O         -2.5370594683        2.9457272169        0.5481844817
 H         -1.8232463249        3.1019399975       -0.1068774158
 H         -3.0903501663        3.7282458998        0.5145907555
 O         -4.9539655542       -1.2324105018       -0.7000900857
 H         -4.8768268664       -1.1911330162        0.2618160115
 H         -4.8878844173       -0.3072062772       -0.9881182726
 O          4.5492712192       -0.7263377300       -0.9750568642
 H          3.9796506961       -0.4982777750       -1.7402067720
 H          4.2017424585       -1.5908776075       -0.6864614629
 O         -2.8710202339       -3.5908375469        1.6035619710
 H         -3.2500153622       -2.7093606304        1.7937353169
 H         -2.9673100577       -3.6919739686        0.6421002648
 O          3.0513001693       -2.9120617395       -0.6101707609
 H          2.6075724300       -2.8519844272       -1.4697903402
 H          2.4727497430       -3.4880690480       -0.0738754047
 O          1.4248137198        4.3227276924        0.2761709619
 H          2.2522273249        4.0618847181       -0.1510875508
 H          1.3911450721        3.8385956999        1.1186795134
 O         -2.1317796423        0.1277647951        3.8088233518
 H         -1.2717372983       -0.3718285910        3.9075805022
 H         -2.5482323953        0.1027645179        4.6709507579
 O          3.6546079521        2.9869270778       -0.8959625448
 H          4.2866706013        2.7169437838       -1.5901640766
 H          3.8442915905        2.3921780596       -0.1498240251
 O          0.1014692181       -1.1898249315        4.0849353473
 H          0.0360262263       -2.0229272368        3.5891263131
 H          0.9038687708       -0.7343185432        3.7772665569
 O          1.4657936564        1.9597716064       -2.1769678808
 H          1.2933593328        1.4527145763       -1.3481106947
 H          2.2224418308        2.5253670182       -1.9327920208
 O          2.2381965610        0.3270820626        3.1564888865
 H          1.8754513366        1.2196054346        3.0271664878
 H          2.9485915906        0.2423106210        2.5115414218
 O         -0.5961498282        3.5020151121       -1.2690905293
 H          0.0392194174        3.9946611077       -0.7026417068
 H         -0.0124366921        2.9297025819       -1.8031451025
 O         -1.3816086821        2.6200450508        2.9990824623
 H         -1.8481954849        2.7467402766        2.1519649714
 H         -1.6672451212        1.7486796023        3.3338044292
 O         -4.4688728705        1.5119274873       -1.0254242567
 H         -4.2035001327        2.1206471079       -1.7286312615
 H         -3.9462551155        1.7899385904       -0.2608745094
 O          2.9168525333       -0.1592622864       -3.0858906411
 H          2.2992918924        0.5796942170       -2.9106817439
 H          2.3822425834       -0.9614825129       -3.1539770448
 O          5.1681599022        1.5975366632       -2.6868861659
 H          4.4981467895        1.1356781714       -3.2062957886
 H          5.5847254488        0.9139753437       -2.1523323120
  91
       -147.81714852
 C          1.4318975548       -0.1621014367       -0.1992701593
 C         -0.5047390374       -0.7756821217        1.1188445095
 C         -1.6931937268        0.0532317026        0.6553720460
 C          1.0003047401        1.2214721238       -0.4397960217
 H          1.9165075718       -0.5899054759       -1.0828709208
 H         -0.8529115607       -1.7310864162        1.5072923340
 H         -2.2069338764       -0.4559767254       -0.1533848605
 H          0.3094238910        1.4559466401       -1.2240533611
 H          2.1233850035       -0.1922787160        0.6474992267
 H          0.0481500885       -0.2622044577        1.9076582332
 H         -2.3840929095        0.1852490981        1.4764940862
 H         -1.3639611803        1.0248729165        0.3076295642
 O          0.3763383385       -1.1078298858        0.0567494603
 N          1.2691784317        2.2235204396        0.4991948307
 H          1.2797466934        3.1486214423        0.0879069267
 H          2.1196596445        2.0440636635        1.0226334846
 O          1.5300996031       -3.5361130055       -1.7558615202
 H          0.5602359649       -3.4586777001       -1.7153220132
 H          1.8413145338       -3.3914191535       -0.8405216984
 O         -3.9290804490        2.5346067268        1.5612152995
 H         -3.4713665131        2.1220465674        2.3139044109
 H         -3.2497860839        2.9769037779        1.0401274106
 O         -1.0981718458       -2.7568218305       -1.4490650254
 H         -0.5824537628       -2.1554562882       -0.8728485609
 H         -1.5019711624       -2.1607883866       -2.0969242632
 O         -1.8993679650       -0.5452971883       -2.9445036963
 H         -2.4119456321       -0.5861850560       -3.7528939669
 H         -2.2503250644        0.2285105324       -2.4443894671
 O         -2.8285422542        1.7436987307       -1.9244698444
 H         -2.5127358939        2.2169857095       -1.1425037350
 H         -2.4028474024        2.2067351775       -2.6796152557
 O          2.3767562570       -1.6982990190       -3.3575640509
 H          2.0383890031       -2.4002845567       -2.7152861700
 H          2.4861466490       -2.1499212347       -4.1954283014
 O         -1.3586133470       -3.3392567977        3.0456421591
 H         -1.7747076005       -3.5443726838        2.1676255316
 H         -1.4957304154       -4.1128048517        3.5935408437
 O          3.9564177976        0.9411806550        1.7077674302
 H          3.3072420368        0.6719070193        2.4265981344
 H          4.7203022867        1.2825921543        2.1747452656
 O          0.0901458150        1.9596290031        3.0996740078
 H          0.2181916521        1.9819868102        2.1387064044
 H         -0.8293129239        1.6910153276        3.2682296071
 O         -1.5579321596        3.4058612918        0.0780672433
 H         -1.0660622134        3.4713422206        0.9006036924
 H         -0.9694720364        3.7584569374       -0.6100932480
 O         -4.5143087067       -1.6491011796        1.0831553087
 H         -4.5864887484       -0.7965853121        0.5804483617
 H         -5.4128463620       -1.9620497782        1.1917437357
 O          4.5693974756       -1.4984371907        0.5117870296
 H          4.6395322101       -1.2759948116       -0.4294395072
 H          4.3857232106       -0.6611126796        0.9738338795
 O         -2.5897214907       -3.6468445189        0.7199293543
 H         -3.2825512365       -2.9672741197        0.7668117052
 H         -2.0781718848       -3.4526817460       -0.0861609372
 O          2.5679852771       -3.2136741014        0.7799056857
 H          3.3078910407       -2.5603423693        0.6936116802
 H          2.9761846396       -4.0354664311        1.0562776195
 O          0.3377372478        4.2358711235       -1.8127383982
 H          1.0859926329        3.6687995023       -2.1674034019
 H          0.5320766546        5.1327298032       -2.0856090644
 O         -3.1859257166       -1.2780365847        3.4911491277
 H         -3.6937995558       -1.4055404902        2.6686949973
 H         -2.4646012655       -1.9295519106        3.4525484132
 O          4.0424761472        1.7346698197       -1.0667486923
 H          4.3007699122        0.9039965489       -1.4952654614
 H          3.9905179523        1.5342696774       -0.1230650547
 O          1.3575955366       -2.2836888544        3.1412150522
 H          0.4455145541       -2.5988960214        3.1921069534
 H          1.6946505824       -2.5792661596        2.2785826339
 O          2.1712840368        2.6997698670       -2.8238825010
 H          2.8544533488        2.4087401840       -2.1900895166
 H          1.7065488069        1.8959789460       -3.1106615727
 O          2.2495632538        0.2820420137        3.5457198935
 H          1.4688002410        0.8663817706        3.5426469085
 H          1.9251204382       -0.6385677693        3.4867020026
 O         -1.1522742343        2.8043366333       -3.7188685062
 H         -0.5160996728        2.1112098436       -3.9350931732
 H         -0.6845585737        3.4111586326       -3.1218520098
 O         -2.5500158385        1.2781954610        3.6426845590
 H         -2.7899762732        1.5814033329        4.5191264122
 H         -2.7634633005        0.3078829539        3.6220411265
 O         -4.8335601776        0.6542017326       -0.1723460355
 H         -4.3023715383        0.9179783596       -0.9336960046
 H         -4.6592212359        1.3433140905        0.5022904321
 O          0.6148747123        0.4673987307       -3.5829004043
 H         -0.2200198933        0.0611394356       -3.2874529481
 H          1.2682620150       -0.2482584771       -3.5371515469
 O          4.5911143375       -0.7551571338       -2.1797132775
 H          5.3159670353       -0.8968828025       -2.7890533055
 H          3.7735596133       -1.0815984880       -2.6202497772
  91
       -147.81707344
 C          0.5303204501        0.0220068810        0.6821528483
 C         -1.8382489117        0.5522180455        0.5566633667
 C         -2.0424898793        1.3869934933       -0.6980000684
 C          1.0742613656        0.9827012585       -0.2908615805
 H          1.0994969287       -0.9181495430        0.6828782197
 H         -2.7478721751       -0.0034029767        0.7907510445
 H         -2.4267357873        0.7737997051       -1.5058975772
 H          1.1642316604        0.7253830444       -1.3279162765
 H          0.5573906473        0.4595856626        1.6841174808
 H         -1.5881348829        1.1968362600        1.4028193989
 H         -2.7639185837        2.1722119806       -0.4943232154
 H         -1.1023812677        1.8397799924       -1.0006128322
 O         -0.8182945325       -0.4345711659        0.4140242025
 N          1.7210771396        2.1328885709        0.1595025276
 H          2.4472332525        2.4377939178       -0.4794106652
 H          2.0796559287        2.0309696317        1.1108363872
 O          0.8370946981       -4.7837911334       -0.0818442384
 H         -0.1340387391       -4.6326402527        0.0687121315
 H          0.9413177381       -5.7289929765       -0.1902937083
 O         -4.3226892537       -1.2376264831        1.8846169741
 H         -5.1851831647       -1.3496465381        2.2852219544
 H         -3.6825202007       -1.1966884708        2.6386058034
 O         -0.4397175775       -1.3680870042       -2.1430564673
 H         -0.6257536797       -0.9658225497       -1.2729476797
 H         -1.3115440898       -1.7332141453       -2.4551645727
 O         -2.8472303479       -2.0831833015       -2.8222295168
 H         -3.2297843903       -1.2245952453       -3.0905974367
 H         -3.2377368126       -2.2974043430       -1.9601877235
 O         -1.6385632998        2.0086340786       -4.0345142590
 H         -0.8539127286        1.4383761823       -4.0686294150
 H         -1.4280077073        2.6941192141       -3.3788634049
 O          1.8076150464       -2.7601396019       -1.6661586690
 H          1.5200023713       -3.5700540254       -1.2099739394
 H          0.9768319389       -2.2740792567       -1.8542254012
 O         -0.8421844688       -2.4850154058        2.2801304793
 H         -0.9183262542       -1.7719724522        1.6201989318
 H          0.1036870910       -2.7285344464        2.3025358503
 O          4.4431885024        0.7154201068        0.6499396013
 H          4.0552815280        1.0925046082        1.4504645336
 H          4.0464433546       -0.1644054106        0.5622478108
 O          1.1486129823        3.3529984165        4.1326736646
 H          1.5519924148        4.2195460954        4.0733068298
 H          0.3477362112        3.3802015401        3.5742359888
 O         -1.1386784134        3.2426480013        2.6064977563
 H         -0.7855901961        3.5775103408        1.7335052226
 H         -1.8901738050        3.7959041950        2.8206657532
 O         -3.8057188849       -2.7667845719       -0.2878361451
 H         -3.9219200642       -2.1623144444        0.4776084684
 H         -4.6043346516       -3.2938953094       -0.3368844527
 O          3.4326051350       -1.8860817757        0.2409059756
 H          2.8509972868       -2.1137505545       -0.5260964976
 H          4.2872099990       -2.2777198580        0.0538848346
 O         -1.6816302903       -4.3720211337        0.5469066567
 H         -1.4890090237       -3.8019256048        1.3186734178
 H         -2.3541121456       -3.8829252368        0.0474683469
 O          1.7686451101       -3.1647641314        1.9877014118
 H          1.5220262532       -3.8778484903        1.3740248507
 H          2.4374236632       -2.6452566179        1.5023640885
 O         -0.0686731848        4.1492627147        0.4118232078
 H         -0.4641800976        4.1482011400       -0.4747819419
 H          0.6597918840        3.4852186122        0.3422529923
 O         -2.5853304978       -1.1848285588        3.8993329568
 H         -2.0470291443       -0.3898203233        4.0279646514
 H         -1.9719151730       -1.8341409554        3.5133844228
 O          3.8568367931        1.6348162931       -1.8768167323
 H          3.7739006116        0.7917615685       -2.3541951208
 H          4.2141351073        1.3944846455       -1.0017399173
 O          1.7126238304       -0.8428433503        3.7822591263
 H          1.7789723558       -1.7126783670        3.3740590181
 H          0.7759417616       -0.6104228234        3.8180374797
 O          1.7090839319        2.7080449084       -3.1909173382
 H          2.5308267213        2.4723628786       -2.7216093549
 H          1.4081993837        1.8932171696       -3.6100499604
 O          2.7438352066        1.5041821788        2.7943641082
 H          2.3040708504        2.1490830463        3.3726510731
 H          2.5170361996        0.6313749684        3.1647276773
 O         -0.4907922749        3.9040776852       -2.3263039524
 H          0.3722537377        3.4799675626       -2.5620630474
 H         -0.4863192769        4.7522640644       -2.7719568501
 O         -0.6358369331        0.8455282926        3.9969727284
 H         -0.8792443198        1.6052607609        3.4444763454
 H         -0.1037596068        1.2122803205        4.7081876295
 O         -3.7168450299        0.3965309546       -3.5332654055
 H         -2.9749995117        1.0194626574       -3.7147491575
 H         -4.3334405119        0.5022617193       -4.2574027641
 O          0.5075000453        0.1837151718       -4.0227842472
 H          0.1245552146       -0.3755082269       -3.2906656640
 H          0.3422997884       -0.2939954141       -4.8371445316
 O          3.0898735878       -0.7013793631       -3.1844786441
 H          2.2761694659       -0.3482456181       -3.5722982715
 H          2.8323136736       -1.5138131980       -2.7329362860
  91
       -147.81624401
 C          1.1100765335       -0.5789758704        0.2430020881
 C         -1.2431739427       -0.0959247237        0.4604865552
 C         -1.7307195711        0.8511884146       -0.6299868661
 C          1.5495106356        0.6152900163       -0.4814146189
 H          1.6890368302       -1.4477566611       -0.0715711718
 H         -2.0671155841       -0.7123367417        0.8227544070
 H         -2.3220424422        0.3115486042       -1.3601058654
 H          1.8343358993        0.5632338700       -1.5127116039
 H          1.2092509617       -0.4301837885        1.3218035649
 H         -0.8382685200        0.4716938667        1.3012760977
 H         -2.3410538783        1.6356733406       -0.1976629485
 H         -0.8810480205        1.2985800955       -1.1329848920
 O         -0.2590325003       -1.0025488783       -0.0087286682
 N          1.5261277370        1.8827313959        0.0970672694
 H          2.3296690041        2.4492299850       -0.1506695046
 H          1.3429865328        1.8826352842        1.0957213569
 O          1.0946950759       -3.9084354179       -0.2511388666
 H          0.1855460143       -3.5850297261       -0.1745761773
 H          1.5600047421       -3.6163713981        0.5504539569
 O         -3.1889554382        2.0843863079        2.1664496152
 H         -2.6439349874        1.6728540411        2.8500422040
 H         -2.6500492121        2.7901261346        1.7790995503
 O         -0.3046252298       -1.1704286912       -2.7289240889
 H         -0.3059842497       -1.1114743183       -1.7471917280
 H         -1.2405127677       -1.2338906949       -2.9816526846
 O         -3.0308221408       -1.0998287038       -3.2542657770
 H         -3.3913433265       -1.5401239187       -4.0244154207
 H         -3.2376158074       -0.1355599321       -3.3641155432
 O         -3.5523747379        1.4720657006       -3.4773602640
 H         -4.0739351001        1.8899968092       -2.7906632432
 H         -2.7065495209        1.9860855715       -3.5223684073
 O          1.9777205394       -2.7329145877       -2.5390982287
 H          1.7379710772       -3.2634779485       -1.7510042293
 H          1.1743795588       -2.2352279662       -2.7583533083
 O         -1.3058429962       -3.0452363496        2.5988323788
 H         -1.4008161096       -3.1791418546        1.6289814897
 H         -1.1679496607       -3.9111295059        2.9845121737
 O          4.2633550705        1.1068809802        1.5343045882
 H          3.5476852460        1.0429811133        2.2140554465
 H          5.0504019849        1.3738644279        2.0107580083
 O          0.2327109710        2.4783336457        2.7147954404
 H         -0.3039919184        3.1274400892        2.2351304955
 H         -0.3932681305        1.9027664352        3.1833975774
 O         -1.4440394104        4.0801186676        1.1415149730
 H         -0.9975275785        4.0156562929        0.2722157995
 H         -1.6015916254        5.0115543086        1.2993881671
 O         -3.7797766997       -2.1170642774       -0.7717077505
 H         -3.5526851626       -1.7328572185       -1.6356686135
 H         -4.0099500423       -1.3830333777       -0.1839501961
 O          4.3609658078       -1.5115634075        0.7035132868
 H          4.3399274393       -0.5939694819        1.0297015434
 H          4.2310804751       -1.4376560779       -0.2610035180
 O         -1.7283565933       -3.5996614287        0.0177410210
 H         -2.4564621731       -3.0032386844       -0.2867151120
 H         -1.9734384273       -4.4820359633       -0.2637458784
 O          2.6084240570       -3.0243711505        1.9448581066
 H          3.2605701209       -2.4380586957        1.4740959332
 H          3.1303521319       -3.7197354607        2.3463717731
 O         -0.0114634605        3.7464686108       -1.1369981250
 H          0.7078836833        4.1036423720       -1.6781761625
 H          0.4199434334        2.9661093673       -0.7077658684
 O         -3.2809279793       -1.2846079396        3.4096259110
 H         -3.7309526307       -0.9935968371        2.6002886787
 H         -2.6625415332       -1.9850325121        3.1443684777
 O          4.3169861113        1.6183782267       -1.3075388354
 H          4.1933741984        0.7166415750       -1.6395875408
 H          4.3645952209        1.5238313401       -0.3467728923
 O          0.8452072505       -1.4564427595        3.4008773839
 H          1.5440252544       -1.9955113344        2.9901705727
 H          0.0273071109       -1.9103035722        3.1361058119
 O          2.3225017070        3.2104011358       -2.5423656934
 H          3.1251105120        2.7874766038       -2.1973109259
 H          1.8580121566        2.5143923591       -3.0257396786
 O          2.3968180395        0.9166827303        3.4096976286
 H          1.7241215506        1.6056531389        3.3024355655
 H          1.9112632843        0.0838197983        3.5135662889
 O         -1.2708639643        2.8075642246       -3.4341641788
 H         -0.9889718697        3.2231986155       -2.6013360844
 H         -0.5391823389        2.2130830672       -3.6753072807
 O         -1.3626298913        0.5310094136        3.8453217469
 H         -0.5934569853       -0.0396236146        3.9579618772
 H         -2.1240484324       -0.0927223156        3.8078635377
 O         -4.4380666050       -0.0769643791        1.1458850686
 H         -5.3664467912        0.0572157442        1.3420508336
 H         -3.9811743420        0.7498502068        1.4192908383
 O          0.8005421552        1.0251533810       -3.7844578884
 H          1.1176545360        0.7553464381       -4.6466041893
 H          0.4127205587        0.2178883502       -3.3665051885
 O          3.9875000660       -1.1414323001       -1.9835614006
 H          4.7128217076       -1.4890953624       -2.5036078532
 H          3.2008107694       -1.7120152930       -2.2049994326
