  129
       -218.85585697
 O          2.9334593500        1.0772711724       -3.4335055708
 H          3.1890949803        1.9966547315       -3.1855799010
 H          2.2849069101        1.1733991911       -4.1490397012
 O         -2.3286802776        3.3317209306        3.1223126649
 H         -2.2622945533        3.3507725088        2.1545795353
 H         -1.4172667434        3.2913127883        3.4461604138
 O         -1.7644338295       -3.0366325043        3.9010239159
 H         -2.6433829708       -3.0203058961        3.4961792556
 H         -1.6529399647       -2.1914761052        4.3733011000
 O         -4.3113381622       -3.0743540081        2.6451992582
 H         -4.4206698763       -3.0133477267        1.6808500304
 H         -4.8106434422       -3.8399149598        2.9341411748
 O          5.0474952917        2.7881802422       -0.4136100499
 H          5.7329988119        3.0410062302        0.2050462921
 H          4.2788103303        2.4738636712        0.1197420493
 O          0.9576435831        0.6026340472       -1.6644854424
 H          0.6487637214       -0.2259127567       -2.0837380048
 H          1.8104744245        0.7792160489       -2.1109608542
 O          0.4186623395        2.8896902831        3.6706708399
 H          0.6108659043        1.9435445056        3.8663694762
 H          0.9444168821        3.4011000707        4.2867461259
 O          0.4691525411       -3.5173478694        0.1476968905
 H          1.4535343477       -3.4871159452        0.0657435261
 H          0.3351287852       -3.7972997986        1.0671126650
 O          0.4163458930       -1.7735726228       -2.8097950591
 H         -0.0666023775       -1.3705386513       -3.5498313367
 H         -0.1765449797       -2.4632973710       -2.4607319071
 O          0.9758541190        0.3414771273        4.2394187375
 H          0.1683730466       -0.0021703906        4.6646446699
 H          1.3310703266       -0.4088881976        3.7261970194
 O         -1.4626562653       -3.4434626963       -1.7539648071
 H         -0.8670912642       -4.0555394062       -1.3047134604
 H         -1.6718408894       -2.7721234758       -1.0723433708
 O         -2.5469175233        3.7574413059       -2.1470410097
 H         -1.6875894691        3.3483806303       -2.4213745083
 H         -2.5700099924        4.6381429487       -2.5207516733
 O         -2.0838168480        2.8167128879        0.3976181230
 H         -2.7698663578        2.1381411568        0.4847783017
 H         -2.2707247677        3.2576332822       -0.4485067480
 O          2.0529673353       -1.6171658084        2.7265358144
 H          3.0128214743       -1.6719968082        2.5428567719
 H          1.6978664530       -2.5216486935        2.7886677492
 O         -3.9741146553       -2.9422199681       -2.7581994484
 H         -4.2617934733       -3.5503490680       -3.4407654181
 H         -3.0556992603       -3.1870955047       -2.5372571951
 O         -2.9038619735        0.7386404082        3.3968645932
 H         -3.8388423985        0.4654608513        3.4652624088
 H         -2.8505708602        1.7169889442        3.4019709666
 O         -1.4394183061       -0.5804442268        5.0803725662
 H         -2.0022746594       -0.0546001015        4.4442738524
 H         -1.8107487993       -0.4443196899        5.9525933879
 O         -1.8980024253        0.5446262007       -1.7338057537
 H         -2.7825542770        0.9186471300       -1.9084384124
 H         -1.5504538025        0.2671559053       -2.6029696724
 O          3.1721435027       -0.5075831850       -0.3936532519
 H          3.9096902640       -0.3784904263       -1.0120024828
 H          3.1574657848        0.3015925896        0.1491996173
 O          0.5521802451        3.0563976685        0.9859917454
 H          0.5281317534        3.1235833184        1.9594911238
 H         -0.3681757047        2.8768847752        0.7174465850
 O          1.3340001672        4.5272374146       -1.1036074103
 H          1.3144693518        5.4596450873       -0.8877871110
 H          1.1235931519        4.0336453016       -0.2806866369
 O         -4.3235214887        1.6651235002       -2.1301715271
 H         -4.5770076826        1.6832071607       -1.1926950159
 H         -3.9064293386        2.5243341362       -2.3033885662
 O          2.9797154074        1.8159334933        0.9335514496
 H          2.0957923136        2.2174172325        0.8993661789
 H          3.2055337769        1.6539653207        1.8806617707
 O          4.8143203664       -3.2428579648       -1.7729280464
 H          5.3785692405       -3.7063871577       -2.3914860859
 H          4.2186454500       -2.6744120547       -2.3161336915
 O          3.0514742914       -3.0886702009        0.3239217346
 H          3.1316488160       -2.1340366324        0.1161302701
 H          3.6550345969       -3.5121489916       -0.2974147785
 O          5.3148360127        0.4560566395       -1.8239331221
 H          5.3233178896        1.3321455093       -1.3960709012
 H          4.9755249625        0.5902604516       -2.7128391205
 O         -6.1931454927       -0.5700564824        0.6677022833
 H         -7.0030237646       -0.5668152337        0.1566946811
 H         -5.6570608480       -1.3412715215        0.3613034247
 O         -3.8323296035       -0.4037169922       -4.0757724667
 H         -3.9614563350       -1.2357345305       -3.5956401771
 H         -4.2017438822        0.2957455030       -3.5212935345
 O         -5.2830361907       -0.5158382153        3.3255537467
 H         -5.8062006174       -0.4291013435        2.5180165641
 H         -4.9238416495       -1.4156738484        3.2934592787
 O         -4.5373280283        1.5559946268        0.6229097414
 H         -5.1022145107        0.7593882990        0.6816892723
 H         -4.8401775767        2.1510428703        1.3116594135
 O          3.1514886012       -1.7536787502       -3.2397238510
 H          2.2115641158       -1.9257309021       -3.0697569578
 H          3.2210426997       -0.7951128186       -3.3334997474
 O          5.9354929945       -1.5270462906        0.0793115625
 H          5.9824974132       -0.7638540125       -0.5100040753
 H          5.5966577604       -2.2473807718       -0.4817702016
 O         -4.5878182963       -2.5417525669       -0.0854136913
 H         -4.6556903512       -2.8279619093       -1.0099092916
 H         -3.7095278217       -2.0975833649       -0.0488803180
 O          3.4929197588        3.5234697361       -2.5710313177
 H          4.1894156284        3.4186294687       -1.9066121364
 H          2.7444496891        3.9194571524       -2.0996619865
 O          4.7021695290       -1.2703558074        2.4071123289
 H          5.0891091008       -1.3229229288        1.4941474344
 H          5.3068607762       -1.7649239945        2.9611267023
 O         -1.1674915709       -0.1780556882       -4.2479955959
 H         -2.1158080639       -0.2201324763       -4.4816505953
 H         -0.7174768337        0.4784397353       -4.7945255292
 O         -0.1289339879        2.8171442440       -2.6690753649
 H          0.0803412451        1.9671136683       -2.2067709974
 H          0.4256121572        3.4836019640       -2.2306126305
 O          0.5132172519       -3.8811523310        2.8681274317
 H         -0.3373844120       -3.5795003178        3.2677250618
 H          0.7617515320       -4.6797378786        3.3338070545
 O          0.7105407718        1.7908357132       -5.0085680121
 H          0.8524617903        2.4406536656       -5.6969031510
 H          0.3907023642        2.2717626256       -4.2134979637
 O          3.6533897233        1.1223231376        3.3772586073
 H          2.8936993397        0.8694637330        3.9134668839
 H          4.1049521389        0.2973347636        3.1242757275
 O         -2.1173952397       -1.5162401565       -0.0652624561
 H         -1.3497388320       -1.3412118249        0.5268901352
 H         -2.0684006486       -0.7334789005       -0.6621318251
 O          0.1231320465       -0.4371733894        0.9529115408
 H          0.8460618896       -0.8993485799        1.3971765735
 H          0.4912483261       -0.0846630950        0.1314019546
 O          1.8726366276       -4.9554571004       -2.0059909271
 H          1.3079209552       -4.5933202996       -1.3098017506
 H          2.4669605751       -4.2406759462       -2.2458721686
