  84
       -142.51082772
 O         -4.9152326542        1.2080843887       -1.6621465175
 H         -4.9236313463        0.3163249813       -1.2762063603
 H         -4.7865272892        1.8047389810       -0.9136314171
 O          3.0794374197        2.1655463668       -2.9847521806
 H          2.1111062120        2.2013813208       -3.0337481309
 H          3.3106027496        1.2295858592       -3.0931168101
 O          4.6306108402        1.0113589949        1.0910454237
 H          4.5594016478        1.7411768201        0.4430568309
 H          3.9797874500        1.2268870747        1.7744741085
 O          3.5857262938       -1.8567976287        2.7670250486
 H          2.9327772469       -1.9142602377        3.5157668087
 H          4.3174140547       -1.3245667943        3.0818105172
 O         -1.2881762747       -2.2722910268        0.0166614913
 H         -1.9016841329       -2.6010340708       -0.6605661081
 H         -0.3842622830       -2.3821754583       -0.3432319329
 O         -1.9597309018        0.2832202369        2.7495374668
 H         -2.9059788881        0.0059740634        2.7467021333
 H         -1.7806715714        0.3866242473        1.7830639907
 O         -4.4750449648       -0.1444290080        2.0341039121
 H         -4.5228217470       -0.7334687565        1.2679161595
 H         -4.4897436702        0.7507809230        1.6450097946
 O          3.5079663878       -3.2843637776        0.2891322931
 H          3.4993470750       -3.1169875775        1.2406582158
 H          4.0411592737       -2.5620405962       -0.0829136976
 O          4.8220429918       -1.0015763031       -0.5881862652
 H          5.7746891347       -1.1018189797       -0.6126398468
 H          4.6531343487       -0.2855783816        0.0783021322
 O          0.5101726479        0.7150635914        4.3810386486
 H         -0.3260664575        0.6550962765        3.9043915892
 H          1.0991939858        1.2831939251        3.8598237063
 O          1.6542186919       -0.5930231417        1.4415057981
 H          2.4500206406       -1.0342253068        1.8124955223
 H          0.8980860705       -1.0199920332        1.9141373551
 O         -3.7787961564        2.1656080545        0.7290860722
 H         -3.3881139927        2.7142218088        1.4279346171
 H         -3.0445908453        1.6302192915        0.3882125867
 O         -2.9772296387       -2.7678353230       -2.0481085308
 H         -3.2314529778       -3.5459458216       -2.5437971156
 H         -2.5096084469       -2.1633430972       -2.7041281218
 O          4.1734271490        2.9737454344       -0.7160041622
 H          4.8270727843        3.6224879403       -0.9763529642
 H          3.7344826178        2.6821416394       -1.5541885954
 O          0.9737886987       -0.9542623824       -3.0457540729
 H          1.0268140163       -1.4298884960       -2.1910347928
 H          1.8974402208       -0.8547582403       -3.3150867151
 O         -1.6964879152        0.3833939076        0.0856738971
 H         -0.8048492886        0.8476510930       -0.0022210148
 H         -1.5498608188       -0.5859706974        0.0119301680
 O          3.7352874013       -0.5565997726       -3.0459863863
 H          4.3824462352       -0.9316335909       -3.6436556011
 H          4.0554312856       -0.7274911353       -2.1354292003
 O         -0.3864917962       -1.9098277764        2.5669810505
 H         -0.7857736254       -2.3020164848        1.7750451339
 H         -1.0045166329       -1.2047166795        2.8402786067
 O         -4.7568287363       -1.3616047833       -0.5291232938
 H         -5.5805590129       -1.8385003215       -0.6364566376
 H         -4.0854742669       -1.8371638640       -1.0583389956
 O         -2.3555677693        1.1077480486       -2.4828929669
 H         -3.3222173083        1.2561889192       -2.4369172827
 H         -2.1174404921        0.8449172150       -1.5728686449
 O         -1.7395223556       -1.1986581990       -3.6856787731
 H         -2.0077293448       -0.3034030751       -3.3755150829
 H         -0.7742925270       -1.2192102784       -3.6051879080
 O          1.2829359212       -2.1701735039       -0.6815772191
 H          1.4245471202       -1.4655880122       -0.0124999621
 H          2.0009654140       -2.8078846421       -0.4873547300
 O          0.3623090353        1.7099812560       -2.8833186974
 H         -0.5979578507        1.8062672719       -2.9305139436
 H          0.5235058122        0.7501117380       -2.9693533565
 O          1.6216072532       -1.7810029159        4.5086136380
 H          0.9000585893       -2.2029908660        4.0240075487
 H          1.3156030901       -0.8605285617        4.6372893969
 O         -2.4020210718        2.9614330619        2.9955119719
 H         -2.8034564937        3.2440493153        3.8170071136
 H         -2.2225903336        2.0037354889        3.0847023955
 O          0.6799888013        1.4707915157       -0.1087567616
 H          1.2824100190        0.7557218649        0.1483092856
 H          0.7976987292        1.6853320397       -1.0526183227
 O         -2.4476739564        3.8284002627       -1.4204569899
 H         -3.0887953920        3.5624084742       -0.7543150363
 H         -2.3752815002        3.0971051970       -2.0425798599
 O          1.8779159057        2.2920922283        2.4502253488
 H          1.4058919406        2.0506893978        1.6399091088
 H          1.7634347988        3.2387027368        2.5481338751
