  219
       -371.67207320
 O          7.9707699418       -1.1881516182        1.7173052135
 H          8.3761797237       -1.9769385712        2.0787304131
 H          7.3486220780       -0.8625499891        2.3870412086
 O          5.0356206439       -3.5585279326        4.0500025683
 H          5.5743018605       -2.7680429973        3.9774670369
 H          4.9327854869       -3.9138755489        3.1419776691
 O         -7.0356281820        0.5531745227        1.3057695561
 H         -6.8420642425        1.2583070159        0.6557074744
 H         -6.4449620974        0.6898520962        2.0494225297
 O         -0.5503119989       -3.9316308893        1.8108029249
 H         -0.8325493180       -2.9992815933        1.7730298600
 H         -1.0537473345       -4.3730250227        1.0967929196
 O          3.6552675548        2.5782260930        2.9990740660
 H          4.6122361917        2.6919455181        2.9263684597
 H          3.5336201152        1.6845967110        3.3633058067
 O         -0.9226279216        0.5508256231       -1.5149643104
 H         -1.5343060201       -0.2020525144       -1.6248590034
 H         -1.3741321936        1.1718575655       -0.9154413890
 O          2.5241086500       -2.5296047011        4.1389579574
 H          3.3772129070       -3.0029711982        4.1805297675
 H          1.8444865551       -3.1620394001        4.4386045157
 O         -1.0757197457        4.0314278173        2.1336354794
 H         -0.7220522495        4.8731411856        1.8124970206
 H         -0.3527826797        3.6073276859        2.6404449848
 O         -2.0201431543       -2.0866078952        4.0068116833
 H         -1.2116839964       -1.6687978864        3.6470970847
 H         -2.6589552964       -1.3803735057        4.1858496524
 O          0.9573721365       -4.8937932602       -1.7421590122
 H          1.4815619408       -4.7001653796       -2.5423824074
 H          0.1099400334       -5.2222994023       -2.0610360017
 O          2.1145767908        2.7037046393       -3.4076791574
 H          2.6475621029        1.9085664336       -3.5742905243
 H          1.2021051055        2.4554685999       -3.6335071704
 O          5.9983649911       -0.1746427585        3.4845745281
 H          5.1727981093       -0.1303273675        3.9982053909
 H          6.1733699315        0.7486028335        3.2205160710
 O         -2.9826127284        3.5059329669        3.9277991257
 H         -2.2827109057        3.7429786614        3.2827686596
 H         -2.5767367100        2.8664254115        4.5449673459
 O         -2.5121735519        1.9175186516        0.2371115221
 H         -2.1866046276        1.6716469720        1.1198985833
 H         -3.0531639932        2.7155999266        0.3404493981
 O         -2.3491362167        1.0138788689       -5.4028363866
 H         -2.3690413271        0.0673497179       -5.1889327004
 H         -3.2413772586        1.3429753355       -5.2081498179
 O          2.1440466521       -4.3982969933       -4.1583560347
 H          3.0880975866       -4.0867601551       -4.0641476973
 H          2.1882950295       -5.1690025598       -4.7240866705
 O         -4.1499008715        4.1322505551        0.2617548384
 H         -3.4892015218        4.8090319451       -0.0066412140
 H         -4.4999170848        4.4294806690        1.1186535494
 O         -1.3805839504        0.9835162382        2.4942791735
 H         -0.4877494519        1.3491653882        2.4930846383
 H         -1.3179695018        0.0758667040        2.1239752880
 O          8.6181320442        0.8917798810       -0.1760566353
 H          8.7516243016        0.2005324774        0.4807500531
 H          7.7051560176        1.2048357526       -0.0363803384
 O         -7.2889675874        1.7196123348       -2.9766294428
 H         -7.0255729114        2.0899108684       -2.1184979702
 H         -6.4941295253        1.7599228023       -3.5448611074
 O         -1.5928603774       -4.4870368540       -2.8309200607
 H         -1.0539491920       -3.8165412127       -3.2947057234
 H         -2.5211936607       -4.2852469041       -3.0438937127
 O         -5.0637875335       -1.1224700007       -3.3119347953
 H         -6.0282602923       -1.1622420710       -3.1975914246
 H         -4.7435360387       -0.6664419617       -2.5037712068
 O          3.5804244169        0.4028247603       -3.4329705658
 H          3.8060936530        0.3334830734       -2.4769977021
 H          2.7537871595       -0.1102635014       -3.4968366328
 O          2.3598058274        4.1194822880        1.0044169337
 H          2.8178330729        4.1811766355        0.1406488178
 H          2.9306324559        3.6471963864        1.6264825479
 O          5.9802233878        1.5941267956       -0.0378168054
 H          5.3337169306        0.8690850752       -0.1385665422
 H          5.8349173466        2.1411655553       -0.8352358661
 O         -4.5975664032        1.8552010053        2.5997561393
 H         -3.9263459468        2.4099885478        3.0631430212
 H         -5.2448997462        2.4889894459        2.2784711091
 O          1.8814812833       -4.1244682161        0.7372197442
 H          1.6647326082       -4.6804922331       -0.0243206912
 H          1.0369555082       -4.0173591934        1.2285002168
 O         -6.6483681922       -1.7029029409       -0.1259238894
 H         -6.7983216662       -0.8857362464        0.3940964440
 H         -7.0389459183       -1.5102187324       -0.9918380721
 O          1.0050249783        6.0040059013       -1.9630573066
 H          0.3894066041        5.2484238610       -2.1287253576
 H          0.8272653470        6.6520355537       -2.6437661616
 O          0.3618754813        5.9864568425        0.7476753794
 H          1.1151667382        5.4486336847        1.0419918937
 H          0.5830149841        6.1898317550       -0.1764449529
 O         -0.1048831951       -2.4542449734       -0.8648388178
 H         -0.9009759787       -2.3294075688       -1.4073360519
 H          0.2594621196       -3.3212886571       -1.1034147503
 O          5.0829279763       -3.6506805160       -1.1857285433
 H          4.9775067455       -4.0215390493       -0.2874990652
 H          5.6855228524       -2.8927784265       -1.0877435576
 O          3.3755800498        0.0825124302        4.3164879369
 H          3.0939357718       -0.8399351795        4.1617740785
 H          2.7143611912        0.4250912312        4.9299259723
 O          0.8497286664        2.6430951380        3.3422405695
 H          0.8180631876        2.0216991970        4.1071393924
 H          1.7628477635        2.9420193987        3.2888766021
 O          4.6625037052       -1.3686347343        1.4134412496
 H          5.2170387518       -1.2805383217        0.6196279528
 H          5.1478345163       -0.9620408452        2.1492902882
 O         -2.4280135460       -1.6526584867       -4.5901109930
 H         -1.5265100695       -2.0251606377       -4.6127168298
 H         -3.0245841408       -2.3091151366       -4.9529006750
 O         -4.2187218107       -3.6896583548       -3.0838535706
 H         -4.4731912634       -3.8278464404       -2.1659265186
 H         -4.5333249353       -2.7860432106       -3.2933389853
 O         -3.4824024613       -3.4953308914        2.2881483451
 H         -3.0947309229       -4.3706821364        2.2338152815
 H         -2.8832979185       -2.9741946852        2.8828706884
 O          0.7470032487        0.7390555305        5.1735418414
 H         -0.1302539801        0.9034879691        5.5455020409
 H          0.6106401416        0.0256619635        4.5018131820
 O          5.6144197887       -1.2609350637       -4.2326183083
 H          6.3770474605       -0.8669683053       -3.7969940061
 H          4.8748092746       -0.6461417982       -4.0848650004
 O          6.4407397492       -1.3567364353       -0.6451156466
 H          6.6757584663       -0.7657064514       -1.3866036976
 H          7.1758091301       -1.3355897370       -0.0163123868
 O          0.4016642755       -1.0599464975        3.2477783994
 H          1.1005956569       -1.6941889245        3.4597106117
 H          0.5875920981       -0.7651009695        2.3117516150
 O          0.0029267658       -2.7020225130       -4.1444275506
 H          0.4211501572       -1.9626525828       -3.6468289580
 H          0.7427753878       -3.2946556298       -4.3549105163
 O          0.2125430403       -3.9464946013        4.4762071438
 H          0.0160899310       -4.1343434254        3.5442696702
 H         -0.5269827526       -3.4062805165        4.7730973779
 O         -4.0289693716       -0.4275762938        1.1946251672
 H         -4.0292230303        0.4508040253        1.6081840923
 H         -4.6729830726       -0.9675359306        1.6922616963
 O          0.1614589592        2.8184023091        0.0029268942
 H          0.9774881170        3.2392396806        0.3238031403
 H         -0.5245629324        3.0642324744        0.6463571155
 O         -3.3457549334        2.8248969348       -2.2708501126
 H         -2.4536455867        3.2001467316       -2.3264309823
 H         -3.8416741243        3.4089911631       -1.6906276659
 O          6.3619083634        2.3407710855        2.4672884999
 H          6.1957711536        2.1141262924        1.5213944324
 H          7.1978026730        2.8065971879        2.4944317936
 O          4.4930149635       -4.0117076655        1.4442244996
 H          4.4848255663       -3.0247780748        1.4488812615
 H          3.5545352077       -4.2492798627        1.3463196798
 O          3.1696714525        4.2762237753       -1.5625294643
 H          2.6928192575        5.1042252930       -1.7162600360
 H          2.7112507861        3.6450963576       -2.1668367534
 O         -0.4772146034        1.9579204725       -3.7638215735
 H         -1.1133196399        1.6830783306       -4.4612036190
 H         -0.6394952296        1.3591250104       -3.0041367349
 O          2.7951298882       -2.2549191332       -0.9688592262
 H          2.3837190549       -2.8094458517       -0.2724586924
 H          3.5837362719       -2.7653293683       -1.2439256209
 O         -5.0941448203        4.7587407327        2.7570688767
 H         -4.3807183108        4.4523857187        3.3449623442
 H         -5.3385680476        5.6377546408        3.0441670495
 O         -2.1916064722        5.7353354643       -0.5623566195
 H         -1.4869097517        5.9730874240        0.0530516717
 H         -1.7621788577        5.1956879359       -1.2453352271
 O         -2.4457035089       -1.6090419811       -1.8539008324
 H         -3.1596205954       -2.0596178178       -1.3626862305
 H         -2.6465608113       -1.6408552277       -2.8054066339
 O         -0.7548331922        3.9974795504       -2.1490025162
 H         -0.5989277087        3.3806698259       -2.9011660816
 H         -0.3983931675        3.5071860516       -1.3577842407
 O          7.2963043629        0.4044858046       -2.5409452722
 H          8.0414068946        0.6085100361       -1.9491807988
 H          6.8185129014        1.2330318254       -2.6601195876
 O         -4.8325553121        1.5037323200       -4.2125673894
 H         -4.3102217686        1.9430085963       -3.5197281634
 H         -4.8324048489        0.5497708611       -4.0095013690
 O         -4.3709580037        0.4468401167       -1.2759303667
 H         -3.6533228914        1.0853630097       -1.4154714517
 H         -4.2044173758        0.0278267562       -0.4042866238
 O         -5.6857862511       -2.0053820156        2.6633124464
 H         -5.0501118998       -2.7435200755        2.6299890050
 H         -6.3895552098       -2.2035787488        2.0382015219
 O         -7.6594310933       -0.8440212899       -2.5854556983
 H         -7.5801252582        0.1457491451       -2.6982314285
 H         -8.5038768393       -1.0884009111       -2.9614693932
 O         -4.1775157639       -0.3070585332        4.3461738735
 H         -4.8295320908       -0.9715857891        4.0941946208
 H         -4.3644610398        0.4624941430        3.7868729427
 O         -1.9787767195        1.2649041491        5.0893884833
 H         -1.7697383016        1.0865225942        4.1429261172
 H         -2.7324433122        0.7014000907        5.2918819450
 O         -4.2639692043       -2.9023863057       -0.3050562269
 H         -3.9779989019       -2.9581130297        0.6232469854
 H         -5.1378302522       -2.4532803258       -0.2840340097
 O         -1.5299885453       -1.4164901715        1.2602129842
 H         -1.0712838684       -1.6126109431        0.4277699759
 H         -2.4577405970       -1.1997141211        1.0610480449
 O          4.6546944995       -3.7899605696       -3.8933416284
 H          5.0088547232       -2.9120700506       -4.1305024003
 H          4.8737869780       -3.9102146481       -2.9568857448
 O          5.3272434205        2.7031481573       -2.4138439686
 H          4.8048445923        2.1301633574       -2.9874728655
 H          4.7294091848        3.4285630110       -2.1684291142
 O         -6.1095291454        2.3030163111       -0.5328298868
 H         -5.4900964247        1.5997840376       -0.8486136134
 H         -5.5486579241        3.0469518538       -0.2732837656
 O          1.2639040243       -0.8324777209       -2.7206184899
 H          0.5811643337       -0.3508145190       -2.2295888168
 H          1.6868266151       -1.4382043795       -2.0774545393
 O         -2.1254731795       -4.8608927094       -0.1847778204
 H         -2.9556850538       -4.3735139832       -0.1949333419
 H         -1.8087197953       -4.8127438768       -1.1046876233
 O          0.9654693272       -0.0332288591        0.7037439672
 H          0.8570164091       -0.8086236891        0.1392865185
 H          0.5629359774        0.7141993370        0.2379933081
 O          3.6934105694        0.2232439666       -0.6267037198
 H          3.4719265274       -0.7354082037       -0.6103324839
 H          3.0635210730        0.6056975129       -0.0077289122
 O         -7.6614797716       -4.2763953406       -0.6592294738
 H         -7.3374730104       -4.3956664806       -1.5537227585
 H         -7.3909123106       -3.3914959279       -0.3796038404
