  131
       -218.46610223
 H         -2.6948148051       -1.2908128909        1.1887666150
 C         -2.0076146981       -0.4520622966        1.0595274708
 H         -2.1447117900        0.2546346527        1.8834170028
 C         -2.3015844997        0.2442504178       -0.2710658925
 H         -2.0484287693       -0.4327037187       -1.0885988597
 H         -1.6926825290        1.1461096108       -0.3535024540
 N         -3.6998843956        0.6299642117       -0.4178495646
 H         -4.2843213184       -0.2035504470       -0.3890267683
 H         -3.9757250997        1.2342253423        0.3486653248
 O         -0.6986553374       -0.9896090233        1.1097905760
 H         -0.0664205457       -0.2505787865        0.9327245745
 O         -0.0095130740       -3.3082178805       -0.2498985765
 H         -0.0580937696       -2.4576888203        0.2205899657
 H          0.7445130559       -3.7968996181        0.1455481583
 O          0.5236496394       -2.3142094507       -2.6707999433
 H          0.4478080146       -2.7559830323       -1.7933164727
 H         -0.3629143078       -2.3030508582       -3.0501903694
 O          1.0945874211        3.5941096500        2.5687348367
 H          0.1910993738        3.3044122324        2.8079923944
 H          1.6212582158        2.7844426027        2.6501069243
 O         -4.9318492199       -2.0414038948       -0.7727746501
 H         -4.1182224290       -2.5755705950       -0.8380400228
 H         -5.2236339662       -2.1294222864        0.1496290051
 O          1.3061857368       -2.4380518070        4.3146319592
 H          1.2718763508       -1.5608618709        4.7231872184
 H          1.9032433229       -2.3170209834        3.5498258260
 O          2.5161456843        1.0922443898        2.4346266164
 H          1.9284367819        0.9938455762        1.6501526646
 H          3.2794409336        1.6117917726        2.1251774693
 O          2.1546543770        3.4690516990       -3.6114178449
 H          1.2034356863        3.6235353163       -3.5280471080
 H          2.2534700093        2.5951512721       -4.0168139806
 O         -2.5823491738       -1.2746377040        4.6725539937
 H         -2.0122479973       -1.8442638538        4.0860853602
 H         -2.8091778002       -1.8113528855        5.4316753417
 O         -5.1998261810       -2.3206628562        1.9413997895
 H         -5.9004967074       -2.8085449644        2.3743648073
 H         -4.4040118343       -2.9186735878        1.9476335343
 O         -2.1370326391       -1.5514141325       -3.3188229282
 H         -1.7582882213       -0.6812074086       -3.5069614157
 H         -3.0925522713       -1.4422462764       -3.4576324562
 O          0.8087570413        0.2857142205       -2.1481586662
 H          0.8110986555       -0.6984374158       -2.2085614656
 H         -0.0291003661        0.5746853802       -2.5530849928
 O          0.0935772134        3.6099786272        0.0946702611
 H         -0.8690746328        3.7700375997        0.2137150732
 H          0.4858901589        3.8115410663        0.9757573587
 O         -1.3952708389        1.1852254297       -3.4259091833
 H         -1.0171699900        2.0790234791       -3.3375563136
 H         -2.3538353598        1.3048622103       -3.2623953480
 O         -2.5470443220        3.9714407749        0.1860352554
 H         -2.9170293358        3.9899235290       -0.7088588970
 H         -3.0837214881        3.3725966114        0.7188003753
 O         -4.0342305512        2.3832309159        2.0942148280
 H         -4.2106080785        1.5076062325        2.5237665667
 H         -4.5769318864        3.0149640935        2.5675029911
 O          2.8225455860       -1.6795250571        2.2104259463
 H          2.4455418051       -1.6534333803        1.2883653878
 H          2.9220246901       -0.7418008363        2.4401445763
 O         -1.2657613265        2.3743633330        2.8168962493
 H         -1.2613386985        1.9378276806        3.6962727816
 H         -2.1894440333        2.5535966639        2.6051883222
 O          3.5927684484        0.7379811378       -0.7981918290
 H          3.1768925683        1.6226776103       -0.8544249531
 H          4.1321246868        0.6457461643       -1.6011322311
 O         -4.0154879333        1.5028192934       -2.8630244194
 H         -4.4797805438        0.7708346434       -3.2870272653
 H         -3.9259620208        1.2139684704       -1.8978917887
 O         -2.5371855796       -3.3203150366       -1.1160261278
 H         -1.6330936226       -3.4517753934       -0.7705368452
 H         -2.4039463434       -2.8300995974       -1.9401242524
 O          1.5259585235        0.3098747296        4.8506022822
 H          1.8358694431        0.6051471474        3.9721503626
 H          2.1430764817        0.6654860825        5.4904877076
 O          5.3281781409       -2.1361923752        1.1815219198
 H          4.5162648873       -2.0996097722        1.7196380535
 H          5.6313578301       -1.2185944393        1.1584301784
 O         -1.0294630861       -2.7297915237        3.1424570818
 H         -0.1787211942       -2.7949314191        3.6417075693
 H         -0.8285811230       -2.1161057788        2.4100067793
 O         -3.1097379889       -3.8987006445        1.7707367002
 H         -2.8485533489       -3.9313404209        0.8430514721
 H         -2.3186327763       -3.6459766085        2.2791208367
 O          3.9683249022        3.2113031256        1.4423418624
 H          3.6546356024        3.2853136950        0.5251976482
 H          3.4859364276        3.8805299464        1.9338963456
 O          4.8727506194        0.6467648235       -3.1983944454
 H          5.3966371251        1.3833714850       -3.5120694247
 H          3.9683440100        0.7321066669       -3.6291412995
 O          4.0588008498       -3.2194889161       -0.9158702560
 H          4.6575434194       -2.8739239817       -0.2144933317
 H          4.4298748729       -2.9329620329       -1.7619719284
 O          2.2064728010       -4.3866219632        0.8117230879
 H          2.4746905924       -3.8869501915        1.5878931898
 H          2.8845128382       -4.2198293298        0.1395761784
 O          2.6590891297        3.2468103884       -1.0045811513
 H          2.6059957633        3.4033465130       -1.9755627229
 H          1.7732240212        3.4367437200       -0.6664244254
 O         -1.1451486935        1.0418696358        5.1290397781
 H         -0.2174226139        0.7577428679        5.1087165318
 H         -1.6764154244        0.2358419194        5.0180099432
 O         -0.5205194431        3.6646379135       -2.6847712958
 H         -1.4194645928        4.0265180565       -2.6904833069
 H         -0.2467252781        3.6756852699       -1.7554721917
 O          5.3529955303        0.6533939228        1.2507642001
 H          5.4707904390        1.5742225354        1.4922085318
 H          4.7118850760        0.6580454785        0.5115611075
 O          5.0077623046       -2.0692623173       -3.2831232622
 H          5.0446422373       -1.0963884524       -3.1977925517
 H          5.8111073782       -2.3426503462       -3.7258560052
 O         -4.5352623762        0.0477381001        3.2344910666
 H         -4.8406678198       -0.7059121251        2.7033626122
 H         -3.8350264894       -0.3138543165        3.8048209309
 O          2.4732617057        0.7413641579       -4.1618606550
 H          1.8984052144        0.6472156655       -3.3644098067
 H          2.4491001471       -0.1604234239       -4.5576648975
 O          2.4999302161       -1.8834592491       -4.5793412453
 H          3.3407396739       -2.1266048416       -4.1650007681
 H          1.8107706203       -2.1638596545       -3.9552317769
 O          2.1177927369       -1.4747552210       -0.2956744812
 H          2.5835137346       -0.6426861737       -0.4971026394
 H          2.6965194156       -2.1775671084       -0.6528586917
 O         -4.8938017814       -1.1286832006       -3.3205454979
 H         -4.9954323728       -1.3937731438       -2.3844890830
 H         -5.4639974639       -1.7091034155       -3.8253834232
 O         -3.2897477882        4.0598289867       -2.5169788179
 H         -3.6183873340        3.1615690448       -2.7235833495
 H         -3.8859997928        4.6779677827       -2.9391430094
 O          0.8300004006        1.0431750358        0.3964592574
 H          0.9548980417        0.7369831628       -0.5285558458
 H          0.4513612897        1.9427127537        0.3409927397
