  219
       -371.68054242
 O          3.7207603352        0.5995959142        4.8722254631
 H          3.4342418978        1.4525195845        4.4948444887
 H          4.6971909708        0.6620108792        4.9308410179
 O          1.8908729098        1.4624506696       -0.6072882201
 H          2.6014982859        0.8149252265       -0.7088868479
 H          1.0694131417        0.9629082173       -0.4439889913
 O         -4.6846293577        2.8202028848        3.9028723526
 H         -4.1326396623        3.1826105377        3.1948705146
 H         -4.1502758899        2.1186550385        4.2976862304
 O         -0.9736504571       -0.5612934428        2.5482449054
 H         -0.5573565220       -1.2183224663        3.1389796722
 H         -1.4821907520        0.0259171305        3.1123484556
 O          2.8161504333        3.3106413657        1.0537306932
 H          3.6995908735        3.4219398356        0.6426029441
 H          2.3995544681        2.5843161113        0.5422779588
 O          4.1885791820       -0.0942588150       -0.7005079742
 H          4.3335924810        0.2274971831        0.2182039412
 H          4.7286064423       -0.9102984647       -0.8231744226
 O          8.1935141287       -3.8880930446        0.9607826835
 H          9.0876391948       -3.9199752548        1.3010841664
 H          8.1274254268       -3.0798570248        0.4265763206
 O          6.5583820428       -0.6526769067        2.0997109136
 H          5.6541760773       -0.2869497881        1.9996000854
 H          6.4257926510       -1.5946859924        2.3750138864
 O         -5.4886738431        1.8511387535       -1.9255212017
 H         -5.1434228883        1.2719181596       -2.6443839538
 H         -6.4529826824        1.8377262362       -2.0397283812
 O          0.6105387677        4.7510991555        1.4877757099
 H          1.5087698618        4.4263447889        1.2736077861
 H          0.2024576607        5.0017176347        0.6428701523
 O          2.1482920328       -5.1288359651        0.1578876083
 H          1.3028148195       -4.8390667736        0.5314595555
 H          2.0954844857       -4.9280338231       -0.7947119712
 O         -0.7789979633        1.9896266408       -3.0608677150
 H         -1.2004702609        2.0591699792       -2.1801678284
 H         -1.4970796506        2.0199584200       -3.7222668730
 O         -5.9344615040       -1.9078630871       -3.0919189271
 H         -5.2163458143       -2.5235613583       -3.2842721105
 H         -5.8330904459       -1.6581794918       -2.1427478786
 O         -2.8902771847        2.3846798102       -4.6691412188
 H         -3.1503611773        3.0746631385       -4.0261188741
 H         -3.6339535933        1.7711365479       -4.6996115547
 O          1.1057667267        0.1500909570       -3.0933697527
 H          0.4751065606        0.8973904958       -3.0460195044
 H          0.7613758456       -0.4284855668       -3.8056968862
 O          3.9481691216       -3.3682394241        0.9635087074
 H          3.3850560745       -4.1282609348        0.6836851630
 H          3.3134791575       -2.6903771833        1.2714504755
 O         -0.4791384092        2.3818141139        1.9772120899
 H         -0.5444822807        2.3131802121        2.9557110324
 H         -0.0413226615        3.2452481871        1.8000969402
 O          1.6873000169        0.6665480979        2.3363757658
 H          1.5006276043        0.4902093690        3.2780987054
 H          0.9527467377        1.2222215073        2.0233613183
 O         -6.7942819610       -2.6388530839        1.2509516854
 H         -6.3232660701       -2.0975319998        0.5735512434
 H         -7.6920097050       -2.7124597226        0.9067575520
 O          7.6239706296        0.8289135159       -1.7898520874
 H          6.7388503021        1.1288231454       -2.1215222679
 H          8.2733195480        1.1896544476       -2.3923642053
 O         -2.3616955826       -0.9054007182       -3.7040100621
 H         -1.5798062095       -1.0224282369       -4.2562966763
 H         -2.7010596527       -1.8018863185       -3.5225968969
 O         -2.0292224552       -3.9975795727        3.2913234114
 H         -2.2406613410       -4.9082740938        3.4965118058
 H         -2.7974011088       -3.6292629447        2.8070670649
 O         -4.1260023378       -0.3668029738        2.3232536948
 H         -5.0239281914       -0.4987090215        2.7361793870
 H         -4.2520567410        0.3161234842        1.6379991779
 O         -3.5851870018        3.7366327361       -2.3928872675
 H         -4.4090099059        3.2396334246       -2.2534925208
 H         -2.9604407321        3.3504924116       -1.7658598534
 O          0.8577968994        4.5322301554        4.3261296422
 H          0.1955005072        3.8701318490        4.5677471960
 H          0.6526205444        4.8275144739        3.4289602634
 O         -0.4118156356       -3.7084732773       -3.4283843739
 H          0.5016068123       -3.9903986136       -3.2401180924
 H         -0.8399855605       -3.7869476223       -2.5595546270
 O         -0.0564191427       -2.3229726858        4.3618779294
 H         -0.8006331658       -2.9292991168        4.2618660294
 H          0.7480010069       -2.8507985134        4.1226350002
 O          1.7126764089       -1.8327124938        1.2992896454
 H          1.7044738957       -0.9509019096        1.7193549259
 H          1.7291804297       -1.6858586939        0.3358273809
 O          1.7598942817        2.8553414916       -5.4698857363
 H          1.4011356106        3.5685307092       -4.9335931843
 H          1.0032594050        2.3053916610       -5.7376242817
 O         -0.7748470700        4.9483205739       -0.8665679179
 H         -1.5091460425        5.5050484071       -1.1281159318
 H         -0.2596474267        4.7926567697       -1.7182512995
 O         -2.9529065463        0.6156558155        4.4448637843
 H         -3.3757223571        0.2454168719        3.6230260306
 H         -3.1632577073        0.0056484527        5.1518661561
 O         -1.4772472781       -4.2250676960       -0.9584009797
 H         -0.9430343906       -4.1157091883       -0.1491641935
 H         -2.3307844964       -4.5697551443       -0.6868046076
 O         -4.3134374244       -4.0346975176       -0.6073808449
 H         -5.2649521727       -4.0999483433       -0.7032213314
 H         -4.1646517681       -3.6058853034        0.2611178711
 O          2.7653688800        3.5012954731       -2.2055288944
 H          3.4551865656        3.9075993026       -1.6789890433
 H          2.4381117691        2.7303664993       -1.7097795204
 O          3.8000716738       -1.6253192298        3.3483817355
 H          4.6242747248       -2.0573983851        3.5867060902
 H          3.7245005503       -0.8246441135        3.9056215589
 O          2.0724801233       -4.0631307148       -2.3777253970
 H          2.8743187260       -3.9942992159       -2.9149153278
 H          1.9857585486       -3.1738518479       -1.9690543916
 O         -8.1858194339        1.4975126887       -2.2572635319
 H         -8.3112034873        0.5460835066       -2.5300795018
 H         -8.7192623291        2.0208885121       -2.8545297685
 O         -4.1286300293       -3.0124761576        1.9017740957
 H         -5.0764524550       -3.1362780524        2.0451916562
 H         -3.9929353415       -2.0415883212        1.9695985249
 O         -5.7159221097       -1.0539765966       -0.5769864247
 H         -6.3140697239       -0.3156132057       -0.3882115663
 H         -4.7779979764       -0.6767443585       -0.6487374023
 O         -1.7518744963        2.4389582216       -0.6239514398
 H         -1.2901989012        3.2939492105       -0.5265477649
 H         -1.2119907529        1.7630328535       -0.1675952459
 O          0.1087596224       -1.5189800735       -4.9300975697
 H          1.0281106688       -1.6070176483       -5.2637443260
 H         -0.0758714529       -2.3595819784       -4.4578613123
 O         -6.5265086300       -0.7491314423        3.2358856391
 H         -6.8304145625       -1.3969272753        2.5740172463
 H         -6.8561707528        0.1332763664        2.9760516659
 O          5.3069268230       -2.4235288977       -1.0804345277
 H          6.2343931410       -2.2710027097       -0.8076814612
 H          4.8498388474       -2.8833326796       -0.3321532903
 O          3.3614655684        1.0496415384       -4.2652873126
 H          2.6126414707        0.7781373035       -3.6957978065
 H          2.9803310746        1.7793028374       -4.7932061628
 O          4.3976105089       -3.1233266722       -3.5266729361
 H          4.7515501048       -2.8379765285       -2.6585183729
 H          5.1237946221       -3.5284989002       -3.9996168576
 O         -9.0819431061       -1.8215696718       -0.1586247665
 H         -8.6747785814       -0.9580926658        0.0697408861
 H        -10.0153559910       -1.7473442757        0.0401376558
 O          7.2201777967        1.9033087628        0.7463178938
 H          7.4873693373        1.5309546336       -0.1097396900
 H          7.1247532260        1.1625440679        1.3538344680
 O          5.5027495546        2.9814569734        2.9704222923
 H          5.7563355405        3.7117463930        2.4054149477
 H          4.6518348918        3.2063253500        3.4006498702
 O         -4.7136334353        0.3314623562       -3.9793880794
 H         -5.3173308871       -0.4246852480       -3.8453815107
 H         -3.8222125794       -0.0730752290       -3.9621308718
 O          1.0375734033        0.1260568950        4.9347815795
 H          0.7075228004       -0.7863279417        4.9192551852
 H          1.9507883044        0.1143567074        5.2542241282
 O          0.4332232488        4.3803846272       -3.0885164909
 H          1.3565654199        4.1787254991       -2.8322296852
 H          0.0078653656        3.5042729575       -3.2100845893
 O         -0.6856758811        2.1877526620        4.6162067670
 H         -1.5521471823        1.7688594650        4.7232130432
 H         -0.0277794289        1.5138670398        4.8702293817
 O          2.9634940231        2.9886737602        3.7252213990
 H          2.7937325153        3.0101772064        2.7602330205
 H          2.2948925866        3.5874131887        4.1153656726
 O          7.6422399220       -1.4571684087       -0.2248411839
 H          7.7529062923       -0.7097652857       -0.8335323931
 H          7.3153430639       -1.0786754542        0.6233795526
 O         -2.9417114659        3.4478763007        1.7556310542
 H         -2.0858983575        2.9564877119        1.7867116350
 H         -2.7359531492        4.3263847670        1.4358658147
 O         -7.8761807016        0.5367806364        0.2700428914
 H         -8.0639565738        1.1032088522       -0.4942296588
 H         -7.7218883786        1.1066432078        1.0365719175
 O         -6.7565450795        1.8334744629        2.4017671542
 H         -6.0299558554        1.8249061064        1.7394369588
 H         -6.3405582859        2.2813472444        3.1577044892
 O         -3.4747586717       -3.3459604693       -3.1614192466
 H         -2.7463067957       -3.8961952783       -3.4635541271
 H         -3.6441830097       -3.5988955910       -2.2355233112
 O          6.3829012256        0.8231604894        4.4869999419
 H          6.6311363284        0.2172425124        3.7709366590
 H          6.3225281326        1.6946500476        4.0707858507
 O          2.0821679812       -3.6612832766        3.6462951367
 H          2.7125720048       -2.9194875412        3.5077505239
 H          2.0191674260       -4.1229097410        2.8068123193
 O         -4.7293728549        1.7103731969        0.6670444771
 H         -4.9619593919        1.8018159162       -0.2776112992
 H         -4.0876967183        2.4053909455        0.9003914595
 O         -8.5314682182       -1.0489176312       -2.8066262704
 H         -7.6880891457       -1.4320258480       -3.0950771286
 H         -8.7376923708       -1.4765071812       -1.9586581722
 O          2.7775717268       -1.4993273989       -5.2567938207
 H          3.0793481041       -0.5907882720       -5.0763558784
 H          3.2929569878       -2.0686214256       -4.6696294435
 O          2.0120558400       -1.5884335757       -1.3627641745
 H          1.5717597599       -0.9654276444       -1.9835983474
 H          2.9175224500       -1.2553559507       -1.2842995722
 O          6.0996250420       -3.2000410971        2.6079555818
 H          5.3093561531       -3.3895724907        2.0638296413
 H          6.8386955504       -3.6292014712        2.1446072553
 O         -0.0525881601       -3.8455205977        1.3225304051
 H         -0.6728714384       -3.8524751571        2.0677534090
 H          0.4977069006       -3.0379320660        1.4159870356
 O          4.3518846318        0.8044515777        1.7518314086
 H          4.7505566328        1.6226057127        2.1035695019
 H          3.4288725898        0.7632693829        2.0653878000
 O         -0.4416675115        1.2459402236       -5.9851318727
 H         -0.3917498046        0.3070909001       -5.7772353806
 H         -1.3183061633        1.5642237116       -5.7446024750
 O          5.1946967829        1.6572257720       -2.4068212538
 H          4.7844367861        1.0088278631       -1.7936490127
 H          4.6340953928        1.5915728097       -3.2108771655
 O          5.1506660321        3.3647237342       -0.2532549920
 H          5.8876546155        2.9447471691        0.2293126892
 H          5.1470028281        2.9027913951       -1.1121292245
 O         -0.3770084908        0.3672310471        0.1273156619
 H         -0.5942065955        0.0788797819        1.0338285095
 H         -0.6578037929       -0.3595653127       -0.4674137684
 O         -3.2337243496       -0.1704072959       -1.1982831988
 H         -2.8940184874        0.7062669275       -1.0006733386
 H         -2.7547793216       -0.4709630252       -1.9875196644
 O         -0.8098177780       -1.7083113969       -1.3569467999
 H          0.0674682734       -2.0879107212       -1.2612049308
 H         -1.4374958368       -2.3893422525       -1.0866805865
