  386
       -651.40163057
 H         -2.1216993928       -0.2978704801        1.1085603244
 C         -1.7280047186        0.0891869617        0.1695835990
 H         -2.5411227270        0.1696462139       -0.5483618604
 C         -0.6342027448       -0.8427325522       -0.3532273696
 H         -0.0495572814       -0.3385675633       -1.1232954335
 H         -1.1223975580       -1.7108476636       -0.7903394102
 N          0.2811762558       -1.3238812296        0.6753956544
 H          0.7938990024       -0.5534388663        1.0872285594
 H         -0.2579453618       -1.7459214527        1.4278585201
 O         -1.2482026331        1.3996876814        0.4492583013
 H         -0.9874256625        1.8364190377       -0.3874494692
 O          0.2700790884        1.5283720287        4.1133223278
 H          0.6272226275        1.1208304721        3.2970816244
 H         -0.1967378996        0.8330846026        4.6364251864
 O         -3.0389689938       -2.8500765205        0.3757661207
 H         -3.5021074106       -2.5305256902        1.1881620979
 H         -2.1965293723       -3.2611771150        0.6530549396
 O          3.1868854012       -2.1220225409        5.5928664148
 H          4.0502495693       -1.6882679638        5.5507278292
 H          3.3223172132       -2.9844568854        5.1527815948
 O          3.9920340155        0.2900554403        3.2535219011
 H          4.5807849892       -0.3841107674        3.6304366871
 H          3.1507188627       -0.1685679605        3.0500528762
 O          2.1111133365       -5.6280083591       -0.0115659318
 H          2.8066662203       -5.7752474019        0.6767464437
 H          2.0612418662       -4.6488439205       -0.1378251608
 O         -1.5381435308        2.5142573745        6.7740651613
 H         -0.8076634618        3.0993348149        6.5344165872
 H         -2.3186299015        2.8713872501        6.3266996781
 O         -0.9444357743        0.0654746241        5.9058536994
 H         -0.1337285492       -0.1856803788        6.3933700738
 H         -1.2565098438        0.9008410826        6.3236069869
 O         -8.5987136603        0.0525676427       -0.9669270688
 H         -8.9116591066       -0.4553638756       -0.1964369371
 H         -7.7493186580        0.4326422343       -0.6834556503
 O          6.2442237510        1.2722585893        1.0334859413
 H          6.5620388341        1.0422226748        1.9196924940
 H          5.4925816207        0.6528487840        0.8429203215
 O         -4.4684018305       -1.9001990980        2.3473148641
 H         -4.5643072264       -2.5101952973        3.1095970730
 H         -3.9871076971       -1.1216467965        2.6988446324
 O          3.3392191975        6.6318700335        0.6263940072
 H          3.9203399864        6.4346682459        1.3828786532
 H          3.7136502599        6.1294175785       -0.1109566709
 O          4.7662958479       -3.1414247748       -1.4392961670
 H          5.0678353211       -3.7731497844       -2.1225572855
 H          5.2280737908       -2.3112610641       -1.6022707106
 O          1.8203344267       -3.3898968581       -5.8750843028
 H          2.7810669605       -3.3319244941       -5.9583615998
 H          1.6872152817       -3.9231137241       -5.0684891139
 O         -4.3180480742       -1.2263098643       -1.3354718000
 H         -5.0032984371       -0.9137680610       -0.7112945950
 H         -3.7668344610       -1.8255446368       -0.8005356957
 O         -0.1654031896       -1.9131249594       -3.4443138440
 H         -0.3226740067       -2.5164435689       -4.2009519364
 H         -0.9863809300       -1.4035428338       -3.3503865136
 O         -2.7145927468       -1.0142114982       -3.4219680453
 H         -2.9544823535       -1.9372277641       -3.6515819086
 H         -3.2393686147       -0.8082503816       -2.6260219511
 O         -0.8910464830       -3.7449845531       -5.2743311082
 H         -0.7496699336       -4.6583302925       -4.9228071943
 H         -0.2936933574       -3.6575195764       -6.0211995583
 O          0.7685617480        6.5453726467        1.4079920779
 H          0.7715518199        6.9519005129        2.2735888395
 H          1.6995018934        6.5573193154        1.0923281711
 O         -8.4191123766       -3.7876950989        1.3832712434
 H         -8.0817060573       -3.8321517600        0.4793875876
 H         -7.6954400225       -4.1256409341        1.9381004039
 O          2.3190752155        3.7134081730        2.0306496761
 H          3.2142702445        3.5152779730        1.6715129174
 H          1.8935504153        4.2366424295        1.3271160279
 O         -0.2608967268       -4.0324634447       -1.8592369127
 H         -0.2690785598       -3.1591161360       -2.3079190527
 H          0.4342663364       -4.5249053691       -2.3401305352
 O         -2.6376944345        4.4966744250       -3.2915504871
 H         -3.0787264597        3.8765843263       -3.9074927464
 H         -3.3425667241        5.0879046912       -2.9604863199
 O          3.6465230511        1.0294151736       -5.4753887400
 H          2.9803885030        0.3762407791       -5.7538100351
 H          3.1615778446        1.8553986875       -5.3288774228
 O          1.5153640918       -0.6965325681       -5.6360921587
 H          0.6637392325       -0.4377133140       -6.0245465199
 H          1.5803029997       -1.6689310811       -5.7280111937
 O         -6.2947655871        1.3222417366        3.7247618820
 H         -6.2745071587        2.3030534682        3.6924526504
 H         -7.2258206293        1.0697521825        3.6170980147
 O          2.5059527208       -2.0943841782       -2.7639866584
 H          3.0543898770       -1.2727942011       -2.7477354955
 H          1.6061252298       -1.8174678865       -3.0026753488
 O          3.8897353737       -5.8669129710        1.8699099853
 H          3.7977225373       -5.4466362319        2.7435031408
 H          4.6635133080       -5.4295663504        1.4605533816
 O         -6.0305781988        3.9728026044        3.4284676125
 H         -5.2280685543        3.9669953832        2.8554197744
 H         -6.6686166094        4.5139568610        2.9574930642
 O         -8.5005560386        2.5853345486        1.1106535648
 H         -8.7126746704        2.0553959866        1.8934369443
 H         -7.7543658586        2.1337514926        0.6674233869
 O          4.6760842894        3.4160408691        0.9342471781
 H          5.2856303194        2.6544883891        1.0233700947
 H          4.3564214272        3.3967242020        0.0067804767
 O          3.4936414974        3.0062090988       -1.4086845009
 H          2.8737065724        3.7430045305       -1.2591111574
 H          2.9989487322        2.1926539841       -1.1405253488
 O          1.6941880128       -1.0544239516        3.5261608187
 H          1.4585109531       -1.8662954800        3.0526882716
 H          2.0908386828       -1.3683843556        4.3559966591
 O         -9.4629452810        2.5914974150       -1.5209523980
 H         -9.2697632671        1.6388362311       -1.4498847582
 H         -9.4922036715        2.8757489965       -0.5978569129
 O         -2.3074894891       -4.5998609429        3.0492854282
 H         -1.9360090352       -3.6989108024        2.9018328297
 H         -1.5791383845       -5.0865180470        3.4736108678
 O          1.5465232652        4.5272974120       -0.4544824021
 H          0.9313769099        3.7961762400       -0.6693358965
 H          1.1052071442        5.3371327814       -0.7560426158
 O          6.0940937029       -0.6811789000       -1.5586853734
 H          6.9518027994       -0.8576044082       -1.1283231612
 H          6.0179649448        0.2897247933       -1.6912338019
 O         -8.9170424051        0.7885513261        3.1807184484
 H         -9.6499976683        0.6562404180        3.7801715817
 H         -8.8950619827        0.0008422599        2.5762000499
 O          2.1044534651       -2.9883675795       -0.1816877744
 H          1.3569656409       -2.3601151520        0.0903559567
 H          2.4330865801       -2.6819588191       -1.0445720336
 O         -2.2448790606        3.8450600419       -0.6911455240
 H         -2.1928508046        4.0528296124       -1.6427609664
 H         -2.8050921657        3.0518329573       -0.6929555786
 O         -0.5635686758        4.1393035932        1.4820175723
 H         -0.1049623102        4.9870815719        1.3475944380
 H         -1.1345425179        4.0013771161        0.7109249196
 O         -2.9418931116       -1.7245901970        6.1882347532
 H         -2.2492957653       -1.0559159810        5.9935761876
 H         -3.6968698544       -1.1983262711        6.4649510038
 O         -4.6633201910        0.9623273130        1.6210975237
 H         -5.2335065044        0.9653574892        2.4166989993
 H         -4.1112964953        1.7446299455        1.6843560216
 O         -1.3267852626        1.4359063949       -3.7237855880
 H         -1.7085910749        0.6125937977       -4.0460367748
 H         -1.2608169128        2.0369111181       -4.4940030323
 O          2.2407851721        0.8339729169       -0.6932125556
 H          2.9964173129        0.2966874121       -0.3729566459
 H          1.7859418903        1.0700459370        0.1437904164
 O          6.2766620411        1.4748433851       -4.5728672467
 H          5.4374047623        1.3901646087       -5.0455996774
 H          6.0559546950        1.6449399030       -3.6326104190
 O          1.1359312363        1.4085667965        1.6336554691
 H          0.2403650208        1.5648507709        1.2740230403
 H          1.5247108209        2.2932726766        1.8298893013
 O          3.9659711492       -4.0580099275        3.9066623981
 H          4.9349730215       -4.0721159893        3.9640192874
 H          3.7893775518       -3.3965676783        3.1993963318
 O          0.0635994199       -5.3955700859        4.1428217218
 H          0.5729984870       -4.7072323047        3.6586821079
 H         -0.0638382258       -5.0152140225        5.0163646367
 O          1.2491613823       -3.6290432586        2.5328560144
 H          2.0220212607       -4.0359202019        2.1374089481
 H          0.5299703412       -3.6518409170        1.8637375199
 O          6.2823842563       -1.2548370679       -4.1808910012
 H          6.4019947355       -0.3792039783       -4.5864947876
 H          6.0007553399       -1.0535934254       -3.2650302831
 O          8.4708288490        1.4973290383       -0.4003406707
 H          8.4684135634        2.4380660461       -0.6125855679
 H          7.5998612832        1.3564403160        0.0464980571
 O         -6.2521899555       -1.2290036310        0.4901620179
 H         -5.6503380205       -1.4600731448        1.2285575340
 H         -6.4962535115       -2.0689086802        0.0422278257
 O          5.4582620645        2.5503819042        3.6474597462
 H          4.8562941494        3.1750544978        4.0877982831
 H          4.8861625176        1.8246806860        3.3366517156
 O          5.4757448485       -4.9051617762       -3.3114695450
 H          5.0552446257       -4.3660852527       -4.0161816683
 H          4.8615768173       -5.6123556097       -3.0738281701
 O         -0.6942017974       -4.0994445558        0.7598983183
 H         -0.4110132858       -4.0586450715       -0.1743406055
 H         -0.7058752369       -5.0381813632        1.0181453858
 O         -2.4509022877       -5.4931246336       -2.1436054775
 H         -2.3466528336       -6.2106608569       -1.4825715415
 H         -1.6693624755       -4.9098765741       -1.9875776467
 O         -0.7740482285       -6.1780673239       -4.2246270842
 H         -1.5572017795       -6.1486991023       -3.6516643515
 H         -0.0581727146       -6.4583539517       -3.6365654141
 O         -3.8291086214        3.9626951377        1.9571387299
 H         -3.6242201084        4.9255931668        2.0712903941
 H         -3.1159109404        3.4687940062        2.4036508305
 O         -3.1889070206        6.4873677185        2.2692140697
 H         -2.7723968821        6.6977342917        1.4163715310
 H         -2.4884641079        6.2939549174        2.9083275680
 O         -3.3125045966        1.7175200729       -1.8550747631
 H         -2.6040962681        1.7102880539       -2.5167743170
 H         -4.1074915703        1.3894622111       -2.2868311720
 O          0.0294837026       -6.5752232143        1.5687446524
 H          0.1260775242       -6.4807620240        2.5246000826
 H          0.8918341215       -6.3935980515        1.1586274488
 O          2.2072249254        3.0252326935       -4.2340206550
 H          1.5170890830        3.6851636417       -4.0963426770
 H          1.8607051168        2.1917865334       -3.8330155157
 O          2.6800525147        1.4754183307        5.3229558956
 H          3.2435376384        1.0033134805        4.6767457022
 H          1.7896019227        1.4682677089        4.9145633011
 O         -1.5722710723        4.9186324737        3.8361178134
 H         -1.2254451166        4.5429070163        2.9947990846
 H         -0.8621410832        4.7794900398        4.4826906503
 O          1.4722593681       -0.4974104175        6.9179863572
 H          2.0605460627       -1.2155955316        6.6390076962
 H          1.9343059126        0.3085014937        6.6337937153
 O          8.8026789018        0.7766619084       -3.1524477482
 H          8.1241551079        1.1477504683       -3.7262894136
 H          8.6306205193        1.1019795634       -2.2567120093
 O          0.0808546512        6.6002835596       -1.4640107343
 H         -0.8178051901        6.5897817447       -1.0645220343
 H          0.5338776816        7.3377131923       -1.0528156710
 O          5.7123190939       -1.2845898909        4.7468077420
 H          6.0451363002       -2.1469429786        4.4577033227
 H          6.4425029880       -0.6675066086        4.6185867075
 O         -6.2000718688        3.2012224799       -3.9145134633
 H         -7.0667302110        2.9756201340       -4.2976308038
 H         -5.9463520404        2.3787423611       -3.4375422744
 O         -5.7289678353       -2.3892404132       -3.3058248928
 H         -5.2405888333       -1.8671549962       -2.6248881164
 H         -5.0697569124       -2.9982666029       -3.6661525875
 O         -1.1593195645        3.1109209219       -5.8301891678
 H         -0.7188530679        3.8947493993       -5.4916504898
 H         -2.1132902055        3.2924279712       -5.8401032288
 O          7.2988112077        3.9787598461        2.2188458649
 H          7.0359211662        4.8829983627        2.4170517648
 H          6.6358579981        3.4231421927        2.6787122007
 O         -7.5598317202        4.6557990858       -1.9728007736
 H         -6.9612215662        4.2569701011       -2.6279986800
 H         -8.2910306673        4.0247904013       -1.9009083995
 O         -3.8152683421        2.9879741267       -5.1659930955
 H         -3.7747005441        2.0192406028       -5.3123451089
 H         -4.7302884572        3.1707590452       -4.8761061489
 O          4.3159518240       -0.3366498862        0.3760402771
 H          4.8312765951       -0.6830933462       -0.3738427239
 H          4.2056046457       -1.0695748061        1.0230568559
 O          3.8719942506       -2.5295106864        1.7292332817
 H          4.6720011951       -3.0247847897        1.4556559722
 H          3.2024152735       -2.7132025578        1.0261323625
 O         -0.9363771265        0.3053949985       -6.4143682095
 H         -0.8264847618        1.2545662990       -6.5371836062
 H         -1.8932002778        0.1653140483       -6.3402264236
 O          8.5057287293       -1.3347804785       -0.5194458502
 H          8.9277655431       -0.4690207953       -0.4675810297
 H          8.6740220201       -1.6700946249       -1.4359093178
 O          6.7479358910       -1.5505472208        1.7226573959
 H          7.3800602852       -1.5536102566        0.9943724466
 H          7.0422318324       -0.8812600807        2.3542121315
 O          3.8759323803        0.1350195199       -2.9197969335
 H          3.8487225997        0.4144669466       -3.8542933605
 H          3.1620188021        0.6077407639       -2.4764928054
 O         -6.3634535102        1.5523702991       -0.2726450054
 H         -5.7527787253        1.1399315915        0.3885302147
 H         -5.9695434157        2.4456423285       -0.4234981416
 O         -6.1420419790       -4.6796603135        2.6781349125
 H         -5.7237078838       -4.3187606870        3.4677382884
 H         -5.5712919567       -5.3995964232        2.3750899950
 O         -5.9930942600       -0.8637653679       -5.6405900853
 H         -6.8279182806       -0.3987173701       -5.5629358493
 H         -5.9145079055       -1.4211896946       -4.8459918827
 O          8.3250988457       -4.0604342448        0.4153141904
 H          8.6233896427       -3.1523949660        0.2930231944
 H          8.3070375162       -4.4329107058       -0.4894509803
 O          9.2514321335        2.0044787003        2.2516890445
 H          9.2247820562        1.7452662016        1.3167657326
 H          8.7790059736        2.8507433925        2.2954966752
 O          4.6344102565        4.2010813298       -3.7400526690
 H          5.2893149991        3.6129794120       -4.1231941612
 H          3.7643320278        3.7716623318       -3.8501044653
 O          3.3903175193       -6.4869423775       -2.2562873048
 H          3.0200623015       -7.3593998456       -2.3975978298
 H          3.0535859669       -6.1897084636       -1.3823541555
 O         -3.5991450206        0.3285194363       -5.5776924710
 H         -4.4717659590       -0.0284036833       -5.8273677227
 H         -3.3746998327       -0.1556852234       -4.7588456493
 O          5.9110003673        1.9742210717       -1.9519693721
 H          6.4441828298        2.6370718704       -1.4686580574
 H          4.9941266486        2.2935320684       -1.8766247845
 O         -3.5525887069        3.4593963286        5.0904640586
 H         -2.8965557728        3.9945735695        4.5987906392
 H         -4.4162171621        3.8103151272        4.8531947348
 O         -5.7554172615        0.8292165184       -2.7764811692
 H         -6.0060791225        1.0100265622       -1.8464087066
 H         -6.4757833837        0.2873073806       -3.1452495705
 O         -8.7039118915       -1.1574641044        1.4554938975
 H         -8.8158609468       -2.1297947481        1.5552378537
 H         -7.7467434005       -1.0722624124        1.2315736221
 O         -2.9132949849       -0.1860779018        3.6323710592
 H         -2.6372884401        0.6933269400        3.3048241492
 H         -3.4203450555        0.0068974945        4.4483870024
 O         -2.0457715786        2.1938988704        2.8475202539
 H         -1.7632721532        2.0026363960        1.9338285438
 H         -1.2324533974        2.2086900108        3.3818358969
 O          3.2626419628        3.9783083334        4.5341364231
 H          2.8064653988        3.9267725148        3.6692935096
 H          3.0852458577        3.1172473006        4.9729115655
 O          5.0205722619        5.4804822665       -1.4138858710
 H          5.3165038038        6.3305435812       -1.7392633890
 H          4.8018742426        4.9496974240       -2.2136769365
 O          7.1445768177        3.9411717344       -0.5563363862
 H          7.1642335916        3.9340998290        0.4188664586
 H          6.4360747855        4.5678704606       -0.7940080672
 O         -8.6364449878        2.0559683305       -4.2523081777
 H         -8.5468688879        1.1054113536       -4.1137265009
 H         -9.1161544767        2.3895633263       -3.4841384332
 O         -3.9792880308       -6.2051378253        1.5362293185
 H         -3.3873170385       -5.6288508480        2.0520364188
 H         -4.3067625780       -5.6721326597        0.7841512365
 O         -4.5670132340       -4.7005841450       -0.6209549392
 H         -4.0088856982       -5.0818238366       -1.3166720971
 H         -4.0209379825       -3.9667866729       -0.2369153168
 O         -7.3881217641        5.0108018983        0.7934267262
 H         -7.6595299954        5.2546428140       -0.1030952780
 H         -7.8966559520        4.2011555614        1.0013688786
 O          0.4512684198       -6.9996505056       -1.8370381692
 H         -0.3348199121       -7.3620343473       -1.4188457909
 H          0.9323833367       -6.5238012615       -1.1457360847
 O         -4.2841777587       -3.4871026682        4.4824399670
 H         -3.8466803784       -2.9069006202        5.1276375351
 H         -3.5713110687       -4.0239009669        4.0777859065
 O          0.4747265748        3.9698465567        5.3517965736
 H          1.3926305581        4.2656941118        5.3362724924
 H          0.4522152672        3.1323957939        4.8551028051
 O         -3.3042054076       -3.5764005963       -3.9932103417
 H         -3.1169537479       -4.2766463178       -3.3503769619
 H         -2.6245017933       -3.6698812514       -4.6801138176
 O         -1.2002120050       -2.1810342922        3.1134872898
 H         -1.8087744677       -1.4556347388        3.3525209466
 H         -0.7248607639       -2.4023572197        3.9300111780
 O          4.2870414372       -2.9815969125       -4.7485280982
 H          3.6789264742       -2.6563260809       -4.0603137544
 H          5.0355723557       -2.3571786957       -4.7385795726
 O          8.6842380741       -1.9192193895       -3.1090992989
 H          9.0586899750       -1.0353248012       -3.2741926890
 H          7.8218226497       -1.8762051977       -3.5716151929
 O          8.0634884365       -4.5712852571       -2.2186898991
 H          8.4217901750       -3.7975998303       -2.6693364901
 H          7.2212100028       -4.7787647028       -2.6476948245
 O         -5.2198357153        3.9344370757       -0.2893069837
 H         -5.9951532953        4.4013861204        0.1045288198
 H         -4.5635647768        3.8962163153        0.4323333449
 O         -7.9659377861       -0.6256073992       -3.4516919789
 H         -8.3320470157       -0.4960834838       -2.5506699255
 H         -7.6201531121       -1.5231742505       -3.4732271297
 O          1.8176455235       -4.6381128354       -3.4183714026
 H          2.3999606505       -5.3666602635       -3.1387734896
 H          2.2214303231       -3.8217790189       -3.0805469541
 O         -6.8642863879       -3.4087784475       -0.9685211132
 H         -6.7011011750       -3.1289242765       -1.8817188621
 H         -6.1237363945       -4.0158804587       -0.7655035284
 O         -2.0506497557       -7.2071226993       -0.1087223699
 H         -1.3075860810       -7.1501970479        0.5109432420
 H         -2.8369288126       -7.0579969689        0.4565925763
 O         -0.4105724178       -3.0009738100        5.6596055274
 H         -1.2906140159       -2.8060631315        6.0054470937
 H          0.1982867588       -2.4150436692        6.1161124291
 O          7.3826481458        0.6064233044        3.4881714112
 H          8.2155938391        1.0294156464        3.1700085635
 H          6.8556017070        1.3266143667        3.8684511686
 O         -4.4107708134        0.7689060548        5.6082691051
 H         -4.0316343873        1.6594189916        5.6138967115
 H         -5.2079310140        0.8484506686        5.0542867614
 O          5.6896829101       -4.2191265870        0.7772690770
 H          6.6673033717       -4.2155341026        0.7155653506
 H          5.3633957398       -3.9147629097       -0.0998403958
 O          6.6431183534       -3.5750081881        3.4831435340
 H          7.2669262909       -4.2658692923        3.2590802588
 H          6.6353610509       -2.9644492830        2.7107435120
 O          0.0001725595        4.5648077222       -3.4164694097
 H          0.2305251658        5.3302887740       -2.8719640617
 H         -0.9780085535        4.5836519421       -3.4504019977
 O         -4.5783525420        5.8504756637       -2.0163131897
 H         -4.7967134196        5.0989324285       -1.4101603938
 H         -5.4147825777        6.0862078804       -2.4197627526
 O          1.2011690213        0.7230857327       -3.3835206019
 H          1.3650610519        0.1131628390       -4.1303335148
 H          0.2456304363        0.9259944021       -3.4438264722
 O         -2.3917479503        6.4705087382       -0.3634732275
 H         -3.1455578561        6.6813037320       -0.9298147218
 H         -2.3993327606        5.4894799465       -0.3258768317
 O          0.1454537777        2.5529623116       -1.5226466410
 H          0.7703051584        1.8498461059       -1.7427645780
 H          0.0012439762        3.0923548926       -2.3190164232
 O          4.9443569017        5.5606207973        2.5809345310
 H          4.4478648370        5.3193690263        3.3693342005
 H          4.8983794155        4.7867305143        1.9831409822
