  131
       -218.46685346
 H          2.5436584463       -1.2546032547        1.3852023769
 C          1.6803958330       -0.6247523296        1.1773508713
 H          0.9265051966       -0.7988486818        1.9509312447
 C          1.1037616195       -0.9617229357       -0.1929021030
 H          0.9652582691       -2.0413119008       -0.2565502942
 H          1.8183545023       -0.6610479219       -0.9592343154
 N         -0.1682317982       -0.3115534404       -0.4920518762
 H         -0.8926893885       -0.6163522606        0.1492347908
 H         -0.0918380735        0.6947822832       -0.3929243630
 O          2.1258643874        0.7292829079        1.2655982825
 H          1.7268449782        1.2465264414        0.5244124726
 O          1.3750437116       -4.2045951718       -0.9361838453
 H          0.5791315481       -4.6782879033       -0.6165938052
 H          2.0220680110       -4.2704296945       -0.2284344339
 O          3.2892871309       -1.2210512295       -2.5711504191
 H          4.1402806745       -1.4163536367       -2.9845913243
 H          2.6281759092       -1.8785209308       -2.9267044034
 O         -1.7158286783       -2.0156102489        1.5816716530
 H         -1.9364945098       -2.2842328506        0.6697435290
 H         -0.9881704873       -2.6113003022        1.8557166443
 O          2.3295457230       -0.6188111849        5.0212565123
 H          2.9841006659       -1.0277491513        4.4289081853
 H          2.1207782160        0.2539789839        4.6560681599
 O          5.6549377641       -0.8404606728        1.6174740942
 H          5.3552926688       -1.3734593881        0.8554888130
 H          5.4842207714        0.0787555260        1.3601180804
 O          4.1363292934       -1.9769065672        3.4203436520
 H          4.7245999733       -1.4757372644        2.7914864460
 H          4.7221708870       -2.4079716569        4.0432966114
 O          0.1313234244       -2.0314564819        4.4360244878
 H         -0.5051125039       -1.3291562686        4.2843873973
 H          0.9489420414       -1.5922888674        4.7604668228
 O         -3.4733827861        1.8204385827        2.7100627817
 H         -4.2272640732        1.3014320838        3.0280162707
 H         -2.6685364087        1.3447436396        2.9939731726
 O          1.4455214364        4.7204245297        0.1442409788
 H          1.2684172033        4.5295513440        1.0816192493
 H          0.5853491503        4.9712402403       -0.2292616357
 O         -3.0472305300        1.4199983681       -1.9289355000
 H         -2.2164650535        1.9236616268       -2.0524069960
 H         -2.9452899318        0.9479562782       -1.0662855336
 O          5.4748106224        1.1664168476       -2.0646895666
 H          4.6625091041        1.3990471281       -2.5307195028
 H          5.2557944037        1.2249907933       -1.1137582865
 O         -0.8826479113       -5.1116130422        0.2205370599
 H         -1.4450240642       -4.4261413185       -0.1705700179
 H         -0.5904664700       -4.7713461740        1.0788269852
 O         -4.2715124639       -2.1502380750        2.4633227204
 H         -3.3042292790       -2.1213464763        2.3137488443
 H         -4.6518574065       -2.2369868767        1.5766130703
 O         -5.0855144813       -1.4989293199       -0.0758061043
 H         -4.9701553702       -1.8312577292       -0.9785602332
 H         -5.7150140362       -0.7645300315       -0.1008961711
 O         -1.1608773525        0.4106526304        2.7932817362
 H         -0.9819903036        0.9981115663        2.0197828190
 H         -1.4141382818       -0.4430357990        2.3955937509
 O         -3.1008745322       -0.4636304887       -3.7600404278
 H         -3.1765978192        0.2991486805       -3.1365401147
 H         -2.8065494429       -0.0850588453       -4.6122988162
 O          0.6244298838        3.9573413162        2.6577403076
 H          0.2952084415        4.5468409456        3.3354661229
 H          0.9422581551        3.1404582364        3.1209853955
 O          4.1875179772        4.1620781398        0.1386754407
 H          3.2782480191        4.4939046928        0.1446900016
 H          4.5996851711        4.4831200221       -0.6642942808
 O          4.6492739118        1.4729140765        0.5201672528
 H          3.7669163669        1.1534882574        0.7862118976
 H          4.5920724566        2.4425294112        0.5318521141
 O         -4.3576998909       -2.4550219225       -2.5494966965
 H         -3.9577176959       -1.7217485693       -3.0685282612
 H         -4.6472649268       -3.1154963498       -3.1786457644
 O         -0.7503192538        2.7694941208       -2.1937933475
 H         -0.0109653438        2.4757821413       -1.6138570326
 H         -0.9536475454        3.6659635979       -1.8893774266
 O         -1.7881104530        0.5892046457       -5.8674269427
 H         -1.4696044007        0.0190976080       -6.5677147073
 H         -0.9977309683        0.8468756112       -5.3441535606
 O         -6.3760879160        0.8395541654        0.6774836204
 H         -6.0520189147        0.6150488446        1.5755231300
 H         -7.2864587226        1.1190992427        0.7751086418
 O         -1.2130096929        5.0912567688       -0.7174253617
 H         -1.6512353424        5.8798517798       -1.0370252643
 H         -1.8420893102        4.6579188333       -0.1050632094
 O         -0.6717556348       -1.2116760371       -2.8778514105
 H         -0.5306062096       -0.7989735260       -1.9651792093
 H         -1.5825654982       -1.0038602486       -3.1695894330
 O          1.2238199422        1.5758542413        3.6303228245
 H          0.3504944985        1.1489346386        3.5807594344
 H          1.6825743050        1.2905524481        2.8097045548
 O          0.3455421074       -3.6009662813        2.2527616688
 H          0.3625229351       -3.2158233099        3.1510599417
 H          1.2674709278       -3.6297572395        1.9499628306
 O          4.6174665758       -2.2877145689       -0.4562499648
 H          3.9516639194       -1.8522048665       -1.0243768809
 H          5.3831296004       -2.3687866307       -1.0387669254
 O         -3.0084620404        3.7292995530        0.7913405378
 H         -3.7686173803        3.5090937503        0.1979973915
 H         -3.2274692444        3.3026822990        1.6337291120
 O          1.4633444281       -2.9115231881       -3.3262020328
 H          1.4496064561       -3.4864766155       -2.5385016162
 H          0.6549512877       -2.3779392860       -3.2734179992
 O          0.2360125107        1.0260213455       -4.1190610449
 H          0.0344789457        0.1637316712       -3.6884899634
 H         -0.1681023299        1.7059065380       -3.5552791026
 O         -5.4909045139        0.0391051835        3.1275865011
 H         -4.9865362347       -0.8041889439        2.9143872624
 H         -6.0520957350       -0.1743374607        3.8726049132
 O         -3.0272176160        0.2415793609        0.4207407104
 H         -3.3093568657        0.8463596597        1.1258239530
 H         -3.7123960518       -0.4439533804        0.3332367790
 O         -4.9835942231        2.8679232698       -0.7418948157
 H         -4.3967877659        2.3847696746       -1.3577172233
 H         -5.4729779998        2.1845264464       -0.2597589785
 O          2.7465659774        1.3450540545       -3.0064785916
 H          2.9303553191        0.3909524652       -2.8405496825
 H          1.9800939468        1.3395439231       -3.6069929872
 O          3.0557699194       -3.6167358675        1.4527851046
 H          3.3845311215       -3.1798899777        2.2575560491
 H          3.6345458118       -3.2917342577        0.7449745130
 O          1.4844921867        2.1996437389       -0.8588648877
 H          1.6665123944        3.1168576836       -0.5850243317
 H          2.0667355364        1.9623112555       -1.6220878473
 O         -0.7144936006        2.2520332305        0.8978467421
 H         -0.2264753588        2.9035746920        1.4214333453
 H         -1.5766692095        2.6626852018        0.7106872226
 O         -2.0873668794       -2.8792313400       -0.9908837689
 H         -2.9457098539       -2.8252194690       -1.4396290568
 H         -1.4348903051       -2.5305900003       -1.6176244233
 O          6.0758796320       -1.3658960733       -2.6719594180
 H          5.9239692605       -0.4225817539       -2.4164034877
 H          6.8896486411       -1.3749627791       -3.1746560688
