  219
       -371.67620037
 O         -2.6218810170        3.1150306503       -1.4160221043
 H         -3.4345267333        3.6138518162       -1.1860686187
 H         -2.8904082302        2.4712001001       -2.1070337666
 O          3.6318961135       -4.5614489653       -1.8396614158
 H          4.3559782769       -5.1144761788       -1.5460133836
 H          2.9689855933       -4.5333711949       -1.1111392685
 O          6.4483561140        1.0968299123       -2.4037833975
 H          6.5194506892        1.6534837958       -1.5922783864
 H          7.2252280930        0.5076898605       -2.3765043057
 O          2.8260459491        5.0304754606       -0.3063456554
 H          2.3748829951        4.4795263867        0.3606625502
 H          2.8585247102        4.4742384757       -1.1006647184
 O         -7.4007732322        3.4204496256       -0.3897735443
 H         -7.4794187500        3.3220248536        0.5701410305
 H         -6.4997456720        3.7584492937       -0.5330062700
 O          0.6530620101       -5.0697003691        2.3637574545
 H          1.0327367896       -4.9537059027        1.4608614995
 H          1.3112940740       -5.5202000101        2.8932524291
 O          4.8860859257       -2.3504400696       -2.8678375509
 H          4.5906555095       -1.5961447467       -2.3128319375
 H          4.3636444636       -3.1170049432       -2.5811481045
 O         -0.5068085472       -5.0034869791       -1.7703793734
 H         -0.9126330191       -4.3606617650       -1.1221343207
 H         -1.1667557179       -5.6888975601       -1.8915790777
 O          5.1888113809        1.2319769341       -4.7689941966
 H          5.5790958857        1.9556288158       -5.2587693861
 H          5.6507721316        1.1975141294       -3.9046593921
 O          1.6364448072       -4.5237193887       -0.0656525804
 H          1.0102975510       -4.9781298606       -0.6481799047
 H          1.3060693766       -3.5227144687       -0.1087235048
 O         -6.3806351324        1.3124508592        4.4332252652
 H         -5.4202611089        1.4314846059        4.3325298710
 H         -6.5663860077        0.3986979108        4.1822927798
 O          1.2338094105        3.3349000098        1.2232069892
 H          0.3670596721        3.7341949290        0.9833998523
 H          1.2731249452        2.4709605883        0.7738241458
 O         -1.9117696109       -2.7436529658       -3.1003535055
 H         -2.8767064650       -2.8833540569       -3.1071903739
 H         -1.4915320737       -3.5824711547       -2.8806609235
 O         -4.6482521999       -2.7933051729       -2.9046707334
 H         -4.8185109412       -2.2726114314       -3.7171479514
 H         -5.3019178109       -2.4796830731       -2.2611350146
 O          1.8976814885       -1.4340979006       -4.5567421989
 H          1.7571569802       -2.3256912561       -4.1906330159
 H          2.7474229343       -1.4914050000       -5.0487892787
 O          2.5407311187        1.1811514987       -4.0588933922
 H          3.4530626879        1.2244217120       -4.3916844892
 H          2.3003931871        0.2373503589       -4.0828218121
 O          1.0971479862       -2.3777156259        2.7722156722
 H          0.4944775023       -1.8716901784        3.3527851878
 H          0.7584514044       -3.2840303402        2.7226436423
 O          3.7917354896       -3.1042849182        1.3080088846
 H          3.0959231029       -3.6703040282        0.9640085158
 H          3.7675278265       -3.1772461576        2.2980203271
 O          2.1972388308        0.3599548493        4.0822703576
 H          3.0861605133        0.1333971859        4.4056490400
 H          2.1202134247        1.3215709340        4.0871462451
 O         -5.4925200451        0.8590503973        0.8851146979
 H         -5.8887029108        1.5345449817        1.4613983236
 H         -4.5364558285        1.0338465171        0.8281873738
 O         -4.0922008309       -0.8690035645        2.8028939783
 H         -5.0623016687       -0.9329687423        2.9326646661
 H         -3.9731543753       -1.0940933303        1.8592471516
 O         -2.0564638422       -4.3632880490        2.2591002309
 H         -2.1856871155       -3.7091643350        2.9917186860
 H         -1.2067685474       -4.7894152386        2.4247543659
 O          2.9888773839       -0.4709846104        1.5533111845
 H          3.1778594609       -1.4216708958        1.4461711673
 H          2.6071588295       -0.3487074922        2.4411374393
 O          6.5965339406        2.1835248951       -0.0031695148
 H          6.1388418974        1.6167147788        0.6495936632
 H          6.2473312409        3.0907876064        0.1303098860
 O          5.9656998940       -1.7086632360        0.5364077230
 H          5.2695592219       -2.3095083598        0.8483532279
 H          6.4695445001       -2.1925745993       -0.1676874793
 O         -4.7707056355        4.3263292595       -0.3974592456
 H         -4.7407196288        5.2835171210       -0.4181592497
 H         -4.6048938630        4.0726403868        0.5571002760
 O         -4.5431879159       -4.2504516445        1.0438673119
 H         -4.3002254147       -3.3277214590        0.7917663531
 H         -3.8474039366       -4.5203465996        1.6603196327
 O          3.5034855587       -2.9329305072        3.8931129702
 H          3.9925742096       -2.1274905304        4.1461171697
 H          2.5874177846       -2.6446673634        3.7111241281
 O         -6.9029770760        2.7892103207        2.3093006077
 H         -6.1694049167        3.4222019083        2.3607817625
 H         -6.8676945484        2.3104954398        3.1745428046
 O         -6.1140246694        1.0573766276       -3.4205743867
 H         -6.5382986067        0.9090195851       -2.5331697888
 H         -6.6368037102        1.7283246636       -3.8596513924
 O          5.4657693020        4.5707166636        0.5665227631
 H          4.6523506405        4.8699872403        0.1272733715
 H          5.1713682090        4.2626084906        1.4351816173
 O          1.6818215121        3.1697631710        3.7935002402
 H          1.4232578454        3.2262956714        2.8320020291
 H          1.7093869988        4.0711773345        4.1166429924
 O          8.8975196024        0.7709106244        0.3240765357
 H          8.6273945938        0.1948783083        1.0613790920
 H          8.1883625772        1.4366766675        0.2475505919
 O          7.1980930262       -2.7795811656       -1.5151065184
 H          7.7988397882       -2.0494175979       -1.7383618469
 H          6.4532475790       -2.7045531999       -2.1461515256
 O         -8.4648357822        0.4597407495        1.4670286453
 H         -8.2926274913        1.3370151332        1.8247333050
 H         -8.2172948726        0.4979311901        0.5316768665
 O         -6.7777191476       -1.1036654421        2.9297329991
 H         -7.3654648151       -0.5198748304        2.4063825131
 H         -6.8914450951       -1.9741905798        2.5231354097
 O         -0.2433721317        3.7839225234       -2.7405911390
 H         -0.2387532882        3.2081420728       -3.5357377271
 H         -1.0613315222        3.5688133917       -2.2703754640
 O         -4.0883143346       -1.7407405889        0.2686477610
 H         -4.9530118807       -1.5880272651       -0.1543060140
 H         -3.4049676313       -1.4690963443       -0.3729603889
 O         -0.0295288486        1.9528620095       -4.6749344047
 H         -0.3708574713        1.0775418803       -4.4368213305
 H          0.9349215893        1.8392386606       -4.6563660498
 O          4.5125532334       -0.2815842818       -1.1873118559
 H          5.1660031912        0.2425443808       -1.6979962507
 H          5.0294358466       -0.7132218221       -0.4701647909
 O          3.4798360000        1.9520311496        0.0062991464
 H          3.0842063513        2.4136306766       -0.7490853896
 H          3.8305271748        1.1212315787       -0.3602921561
 O          4.4233358163       -1.4345189049       -5.4021695744
 H          4.7534294994       -0.5279098168       -5.3473676099
 H          4.7058565960       -1.8614362080       -4.5717771442
 O         -0.3397161198       -0.7207742066        4.2981362181
 H          0.5022127873       -0.3147786284        4.5516447509
 H         -0.6623391274       -0.1770890074        3.5517368856
 O          0.4020792226        6.0358619248       -1.1850108930
 H          0.2832920445        5.4670869195       -1.9591656311
 H          1.3208227462        5.9004815749       -0.8844487439
 O          2.3177802107        3.1215418785       -2.1700890326
 H          2.5034389474        2.4654917702       -2.8638957448
 H          1.3825756587        3.3728240627       -2.2970912148
 O         -2.4429834018       -2.5520221076        4.1286048992
 H         -3.1025017534       -1.9510153734        3.7281321890
 H         -1.7027453654       -1.9859530056        4.3830538323
 O         -0.8953670557        0.8043057114        2.1681481780
 H         -1.7139277425        0.9203432522        1.6424620613
 H         -0.1739540995        0.7410740879        1.5133514710
 O         -0.6876390753       -0.7317211066       -4.4634430649
 H          0.2319399876       -0.9878519131       -4.6658521252
 H         -1.0814302406       -1.4967898244       -4.0117020109
 O         -3.7745832627        1.6440618936        3.5629169755
 H         -3.7434330956        0.7122495460        3.2443995485
 H         -2.9356979787        1.8488575734        3.9883986152
 O          4.1100982730        3.0146977272        2.3982441894
 H          3.3541300240        3.0417038947        2.9985588608
 H          3.7588065150        2.7288451328        1.5266798322
 O          4.7656103053       -0.5278111287        4.3258442646
 H          5.6019285482       -0.5855688466        4.8158270328
 H          5.0435946887       -0.1663147731        3.4547362140
 O         -2.1520880125        4.9819315922        2.8772714017
 H         -1.8009229760        4.2320788581        3.3931145559
 H         -1.6856354685        4.9522721473        2.0251831536
 O         -7.1924172940        0.8685280284       -1.0412023504
 H         -6.4436315198        0.7968339975       -0.3821859304
 H         -7.4505523614        1.8159277047       -0.9531609721
 O          7.9304159234       -1.0280782658        2.1848737926
 H          7.0986844568       -1.1563968460        1.6664885645
 H          8.4010793633       -1.8616850672        2.1418214528
 O         -3.4406785025        1.2356805059       -3.1220155975
 H         -4.4150069120        1.2008974336       -3.1693646872
 H         -3.1280998810        1.0625466303       -4.0341657928
 O         -2.8529434218        1.1950638017        0.4504201012
 H         -2.6558568159        0.4379845894       -0.1246776270
 H         -2.7134806655        1.9813898527       -0.1123605761
 O         -1.8099825909       -3.3871562907       -0.2057129239
 H         -2.5938534625       -3.7792643509       -0.6387205139
 H         -1.8574471566       -3.6822920712        0.7305003885
 O         -3.6508882449       -4.9123664162       -1.4638176031
 H         -4.1490561407       -4.3501952365       -2.0758523624
 H         -4.1741414699       -4.9534804958       -0.6458468316
 O         -6.4879032819       -1.8742371457       -0.9635131305
 H         -6.8722481158       -2.3661394357       -0.2173164932
 H         -6.9852668726       -1.0536623067       -1.0548679948
 O          7.4301379152       -0.3719649907        4.8120016425
 H          7.7974261138        0.5011177747        4.9532768036
 H          7.6179306783       -0.5939670181        3.8793424209
 O          8.6338620936       -0.4609062321       -1.9533947328
 H          9.4649101218       -0.3863294994       -2.4211707036
 H          8.7769229906       -0.0294472328       -1.0593607012
 O         -2.7096502420        0.5254597162       -5.6127864527
 H         -1.9592704871       -0.0424752561       -5.3271750988
 H         -2.3156055760        1.2330898030       -6.1260822351
 O          1.4493378131       -3.8886708283       -3.4764054924
 H          0.7453937219       -4.2869508545       -2.9472282493
 H          2.2803036907       -4.2133977098       -3.1089694366
 O         -7.0521881514       -3.3789939956        1.2994458604
 H         -6.1588515517       -3.7913759946        1.2950389099
 H         -7.6861935083       -4.0837897345        1.4276423644
 O         -4.3745964930        3.8087879995        2.1152316837
 H         -3.6484083248        4.4011405162        2.4308223676
 H         -4.1528727286        2.9482650592        2.5325762151
 O         -2.3741056681       -0.6328910876       -1.4908498172
 H         -2.0602900049       -1.4128971332       -1.9838116496
 H         -2.7747127266       -0.0336162324       -2.1512911477
 O          5.3699470029        0.7083389560        1.9949463397
 H          4.5712885410        0.2905550317        1.6120165930
 H          5.0612416506        1.5781631517        2.3169106462
 O         -0.9921900947        4.5153619912        0.4340018223
 H         -0.5419988343        5.2091509383       -0.1148059497
 H         -1.5361971409        4.0057404345       -0.1781805916
 O         -1.1115374654        2.6995789182        4.0130788489
 H         -0.2233281466        2.8303770346        4.3610261264
 H         -0.9986481926        2.0513458387        3.2837125028
 O         -5.0268250668       -1.0508078206       -4.9151115700
 H         -5.5170972141       -0.3517487328       -4.4561602965
 H         -4.2588619499       -0.6238340450       -5.3148345929
 O          0.9696214465        0.8689832279        0.3221827867
 H          0.8328020891        0.6354547475       -0.6129327226
 H          1.8036420761        0.4444292700        0.5985830879
 O          0.6290885901       -2.1679091515        0.0872896738
 H          0.8257015025       -1.9607092146        1.0248305566
 H         -0.3268250459       -2.3193005731        0.0079140530
 O          0.6821867342       -0.3494778541       -2.0138737688
 H          0.7053202820       -1.1213536811       -1.4365498503
 H          1.1430612389       -0.5881653662       -2.8202999458
