  279
       -473.51079538
 O          2.9801694324        4.9479005476       -2.8397373561
 H          2.2988447938        4.3510663597       -3.2489420317
 H          3.1825821292        5.6120336421       -3.4986235477
 O         -0.5613025947       -2.0986581752        5.0780622381
 H         -0.5315423048       -1.1627876766        5.3630684445
 H         -0.6897369914       -2.1281604586        4.1024571902
 O         -0.2624492717        0.1472684820        2.9231392631
 H          0.0172768384        1.0106668841        2.5803499924
 H         -1.2261222473        0.1588950899        2.8497302892
 O         -0.8865711750       -2.5727482516        2.4718117894
 H         -1.0052941240       -3.5495841630        2.4439759535
 H         -1.7645290808       -2.1888197443        2.2393648103
 O          2.6064538799       -2.7551540415       -1.0772139754
 H          3.3842133690       -2.1512731530       -1.0909039917
 H          2.1399095082       -2.5776319226       -0.2394032099
 O         -4.9119876972        0.6668679353       -4.2340383494
 H         -3.9593426915        0.8350625726       -4.3542375872
 H         -5.0751356882       -0.2055161014       -4.6616260248
 O         -0.4377500961        0.4298307062       -6.6728497509
 H          0.2083337732       -0.0488121774       -6.1344749031
 H         -1.2891493805       -0.0193939380       -6.5415286741
 O          4.8703746398       -3.2184973619        0.8975068694
 H          4.3725128118       -4.0307587403        0.7014607834
 H          5.6117063980       -3.4515429160        1.4639936331
 O         -2.6274747128        4.3681685947       -4.1035370154
 H         -2.0196933484        4.9749337936       -3.6724074866
 H         -2.1372563213        3.9504741128       -4.8263410313
 O         -3.1531699242        3.1855428661       -0.1272690889
 H         -3.6858119258        3.0610299645        0.6626360913
 H         -2.2871163871        3.5095359354        0.1605228445
 O          0.1703043298       -6.0368572925       -1.1631638834
 H          0.6615478025       -5.8643426194       -0.3525316965
 H         -0.7669831321       -6.0157516499       -0.9022428986
 O         -3.4899546655       -1.7243594766       -0.8392723945
 H         -2.5774494480       -2.0560342413       -0.8708805491
 H         -3.4565610186       -0.7710472394       -1.0804764917
 O         -5.4770015980       -1.7682931326       -5.1180400422
 H         -5.0532074259       -2.3162614975       -4.4350743116
 H         -6.4285158736       -1.8274918547       -4.9444640725
 O          6.4537512507        3.4043111077        2.5489702083
 H          5.9543016014        4.0942755761        2.0774134451
 H          5.9032646944        3.1584079426        3.3013830879
 O         -0.7323341060        2.8129117600       -2.2337560562
 H         -1.0158971353        3.7431089991       -2.0914250181
 H         -1.3871127952        2.3925736963       -2.8345735100
 O         -2.6512047657        1.1928494658        2.0724189848
 H         -2.0986707752        1.2799651030        1.2743516155
 H         -3.5315377671        0.9209137254        1.7422320310
 O          2.7072287215        6.2281433373       -0.3965180489
 H          2.6438302097        5.8059758843       -1.2668194886
 H          3.4518635540        5.8128127379        0.0632122335
 O         -3.4027785080        0.8243835063       -1.5133318766
 H         -3.1362766757        1.0700028548       -2.4078530879
 H         -3.3404752787        1.6294989793       -0.9772528675
 O         -9.0959171007       -0.2522012887       -0.0060859204
 H         -8.7758271470        0.5025278468       -0.5490750457
 H         -9.9791472793       -0.0302354254        0.2875733314
 O          6.1335139154       -1.1913279127       -3.5304493052
 H          5.7492140372       -1.9700532939       -3.9621223825
 H          5.9055162813       -0.3956943317       -4.0439238578
 O         -1.0071508270       -2.9181346718       -0.8319431122
 H         -0.2621963263       -2.9120525646       -0.2255109512
 H         -0.6557426325       -3.2174497547       -1.7034553944
 O          1.3812418230       -2.1780559195        1.2399544785
 H          0.5008921265       -2.2368047862        1.6814007965
 H          1.9876055479       -2.6442661832        1.8514088864
 O         -5.1222527725       -3.4479608484        2.4907096457
 H         -5.5355164117       -3.4540591255        1.6077463931
 H         -5.7030710107       -2.9212022259        3.0691866533
 O         -3.2721808293       -1.6460709398        1.9330837706
 H         -3.9121211028       -2.3620966989        2.1633835159
 H         -3.4594558113       -1.4126401666        1.0109816397
 O          4.6367460271       -1.0739532440       -1.3113706950
 H          5.1826177277       -1.1563878009       -2.1202114654
 H          5.2527924037       -1.1343751503       -0.5474920745
 O         -3.1979104650        5.1418318877        2.4554342034
 H         -3.2131494617        6.0205533273        2.8347454364
 H         -4.0514303122        5.0459410684        1.9574761227
 O         -1.1659591810       -5.1919541929        2.2012217366
 H         -0.2627479304       -5.4877398356        2.0224021509
 H         -1.6634493408       -5.3263636255        1.3704967753
 O          8.0150032078        1.0260660539        2.4289065045
 H          7.1455748943        0.6575988346        2.7097733448
 H          7.9546636407        1.9638304148        2.6413519865
 O          4.8677711952        3.6939228563       -1.3385765553
 H          4.9197085011        4.1940906672       -0.5171921477
 H          4.2419231288        4.1610730632       -1.9244387782
 O         -3.1670377532       -2.7238420392        5.6171899167
 H         -2.2038541901       -2.6003052436        5.6154919662
 H         -3.3105087236       -3.5649986207        5.1365807934
 O          2.8617666557        4.8272816051        3.5661858404
 H          3.4938022242        4.2342118498        3.9859207463
 H          1.9988160380        4.5428403755        3.9075159568
 O          0.9826410599        6.0696412682        1.6331294393
 H          1.5954084375        5.8329091082        2.3361210037
 H          1.5299314074        6.2526335837        0.8412608840
 O          6.2431500122       -3.6590197791       -1.4636980483
 H          7.0388784289       -3.1177320918       -1.4966968141
 H          5.7512406651       -3.3725023392       -0.6709138858
 O          2.9521643941        1.1999386691       -3.8128750749
 H          3.8321987507        1.2646032014       -4.2146962371
 H          3.1156637291        1.2360940860       -2.8410896146
 O         -0.8787318561        2.8493984023       -5.6818994742
 H         -0.0423159397        3.0925666551       -5.2517528207
 H         -0.6769641624        2.0584662047       -6.2320225130
 O          5.6245250308        1.2873657967       -4.4471236186
 H          6.0585988653        1.7379027340       -5.1712047464
 H          6.0824253670        1.5829076156       -3.6205477292
 O         -3.3344051986       -4.8960314930        4.0273911647
 H         -4.0099751029       -4.5728747946        3.4129559000
 H         -2.5565037873       -5.1126387936        3.4979472881
 O          0.6935059478        2.5250466228        1.8548606444
 H          0.7070141206        2.9266274530        2.7637539456
 H          0.0559030188        3.0774475507        1.3632418166
 O          5.6100544749        0.1924508435        3.3303158533
 H          5.5640286127       -0.6220526139        3.8533741888
 H          5.0469016086       -0.0165470612        2.5398907159
 O         -4.7412086312        3.1337783546       -2.8434234820
 H         -4.9646858318        2.3510726224       -3.3586945873
 H         -3.9818330129        3.5310553322       -3.3042011274
 O         -8.3367074196        1.8228209003       -1.5542154353
 H         -8.9650240768        2.5099113017       -1.7788538987
 H         -8.0227377893        1.4532098641       -2.4263745334
 O         -2.2654589043        1.3711341900       -3.9245438969
 H         -1.7888792817        0.5033623450       -3.8491502420
 H         -1.8801804293        1.8392677877       -4.6931421992
 O         -0.9739805490        4.4775450059        0.9892462799
 H         -0.2305631832        5.0894463380        1.2245248266
 H         -1.7034675933        4.7536964871        1.5736722361
 O         -1.3168029097        5.3558681474       -1.6698099488
 H         -1.0033416021        5.2931157075       -0.7563039678
 H         -2.2591026102        5.6001618924       -1.6022159864
 O          0.5897299183        3.4726370676        4.2673985933
 H          0.9884065038        2.7367758381        4.7811533303
 H         -0.3825564915        3.3828951634        4.3170281076
 O         -4.9146454248        0.6100133385        0.8169596967
 H         -5.3687144920        1.4009575167        0.4731175261
 H         -5.6080085934       -0.0226302972        1.0929187021
 O          7.1942359754       -2.6937490516        2.4293195818
 H          7.9754791573       -2.3437010300        2.8938612029
 H          6.9972464295       -2.0220466086        1.7381668308
 O          4.4355024537        4.7745161095        1.2661736748
 H          4.0484360197        5.2446842132        2.0163287090
 H          3.9913973726        3.8853831883        1.3009210177
 O         -4.2724628588       -3.1287446703       -3.0423005976
 H         -4.4617178632       -3.9996045838       -2.6625613476
 H         -4.0575713147       -2.5430208004       -2.2882653251
 O          1.3210456290       -0.7380260753       -4.7743131725
 H          1.7279655475       -1.5924754386       -4.5474509008
 H          1.9339686253       -0.0455921356       -4.4679433497
 O         -4.0243443128       -0.5969645641        4.3565022131
 H         -3.6821015607       -0.7250571983        3.4546612594
 H         -3.7147871296       -1.3894155819        4.8739855432
 O         -7.6007382861       -2.0220322840       -1.5388625907
 H         -6.9464731349       -1.2759666148       -1.6423242531
 H         -8.2943053321       -1.6358791994       -0.9865861948
 O         -5.9821196918       -0.0290628652       -1.7988149514
 H         -5.3507505002        0.1723929144       -1.0935520551
 H         -5.5338655704        0.1892087835       -2.6339790499
 O         -6.0075995224        2.7442054172       -0.4434007349
 H         -6.8659197381        2.4097530982       -0.7595475264
 H         -5.4843168987        2.8780367914       -1.2577607356
 O         -6.4408675223       -1.6470747652        4.1012808792
 H         -5.5979540802       -1.1397041101        4.2292283565
 H         -6.7017061601       -1.9503658742        4.9708248418
 O          3.3432499205        2.4074033430        1.6269969894
 H          2.3758317588        2.5377776844        1.6395849065
 H          3.6109607188        2.3309214221        2.5646320801
 O          2.3898966304       -3.0259527106       -3.7334091253
 H          3.2838973103       -3.3184229335       -3.9639680740
 H          2.4246641145       -2.8465004273       -2.7756778621
 O          8.1070462946       -1.3582707485       -1.6375487882
 H          7.5412745151       -1.2007729817       -2.4132573723
 H          8.6019886500       -0.5447956640       -1.4831977242
 O          8.6364967871        1.0498790646       -0.2653733870
 H          8.3840511334        0.9859176465        0.6782806972
 H          9.3442758907        1.6922086393       -0.3151271100
 O          2.8791097528       -3.5450402649        3.0205280252
 H          3.7612645461       -3.1784083171        3.2129613383
 H          2.4164664464       -3.4955184463        3.8753147615
 O         -2.7024273617        1.3065845834        5.7885258209
 H         -2.5534694440        2.0507647994        5.1798869743
 H         -3.2537354029        0.6629600379        5.2999387119
 O         -5.6973653609       -3.2770574072       -0.1363472050
 H         -6.4950702927       -2.8913122692       -0.5576787148
 H         -4.9896688342       -2.6301280357       -0.2949837414
 O         -2.8001761529       -0.8430244218       -5.9568323104
 H         -2.4847123069       -1.6922815773       -5.6141490857
 H         -3.6927297630       -1.0088847662       -6.2681606461
 O         -2.0362083620       -3.0826420256       -4.5307068474
 H         -2.8653071334       -3.2153429584       -4.0312024499
 H         -1.3624864241       -3.6464659588       -4.1192456243
 O         -6.8530553667       -1.1084101785        1.4201326603
 H         -6.9548677730       -1.2161501797        2.3740042445
 H         -7.6958522165       -0.8059450541        1.0551674040
 O          5.1910234116       -2.4364056636        4.0615274085
 H          5.3908607998       -2.8595654758        4.8955256981
 H          5.9753652744       -2.5937787655        3.4641813124
 O         -8.0865724855       -1.7713879893       -4.1451338639
 H         -8.8652755435       -2.2496493611       -4.4275531697
 H         -7.9457031557       -1.9731643800       -3.1886573826
 O         -2.0454363728        3.0735155046        3.8398252042
 H         -2.2522278830        2.3700059935        3.1824506852
 H         -2.5182295684        3.8585845380        3.5272940433
 O          4.2405975294        2.3209587489        4.1843173924
 H          3.5313410825        2.0762534680        4.7952157479
 H          4.7624233516        1.5026593970        4.0265729492
 O          1.8587224192        1.3933371627        5.3689261893
 H          2.0229421025        0.6835054412        4.7115999469
 H          1.1036556397        1.0559719904        5.8851774011
 O          2.1448150407       -0.6779628716        3.6894966166
 H          1.2159227175       -0.5720004515        3.4008870898
 H          2.1709923801       -1.4161390883        4.3153122029
 O         -7.7218518508        0.9844324313       -3.9654193669
 H         -7.9275946303        0.0440461829       -4.0948307170
 H         -6.7871293631        1.0757456519       -4.1920923002
 O          1.2675134863        3.2817164916       -3.9439105004
 H          0.5931449939        3.0871977277       -3.2540492287
 H          1.8410354206        2.4907767727       -4.0047448343
 O         -0.0372416375       -4.1037901768       -2.9919101980
 H          0.1352471304       -4.9182113571       -2.4728630217
 H          0.8003969049       -3.8290725189       -3.3961150302
 O          3.5403383146       -5.1644268524       -0.4398961349
 H          4.0567213833       -5.5834864136       -1.1276479389
 H          3.1422201469       -4.3496314666       -0.8286564636
 O          3.8606031706       -0.6785750596        1.5828661790
 H          4.1975109934       -1.5598815531        1.3583442302
 H          3.2523871917       -0.7784365765        2.3382359559
 O          5.0742589630       -3.6913614744       -3.8465709812
 H          5.4917540549       -4.3900639892       -4.3497616592
 H          5.4640350948       -3.7277868915       -2.9372454512
 O          3.5806522141        1.3268324194       -1.2542454860
 H          4.1387645560        0.5168553481       -1.2514917736
 H          4.1591497136        2.1102006782       -1.1815878140
 O          9.1647478510       -1.2145614053        3.5564354803
 H          8.8895328293       -0.3523320992        3.1971970804
 H         10.1134079440       -1.2771451517        3.4477011916
 O         -0.4105445698        0.2763332940        6.3450215725
 H         -1.2907371747        0.7084772748        6.1142428124
 H         -0.4815017670        0.0505460048        7.2724234503
 O          1.5192115068       -5.3799253163        1.3812368104
 H          1.9188678516       -4.8246103966        2.0655572091
 H          2.2553475577       -5.5826363115        0.7857389525
 O         -2.2737799552       -5.2438449469       -0.2456177796
 H         -1.9714786239       -4.3424862097       -0.4750342812
 H         -3.1408824429       -5.3629396789       -0.6680136610
 O          6.5500874492       -0.9580168314        0.5109793687
 H          6.3745836908        0.0064087444        0.5978936061
 H          7.2346593495       -1.0706106191       -0.1768608410
 O         -4.7307590128       -5.3247145840       -1.4399515638
 H         -5.1723352276       -4.6405705049       -0.8715737781
 H         -5.2871585983       -6.1023988714       -1.4358607988
 O          6.8538592989        2.0348945349       -2.2372931755
 H          6.2456987767        2.6757374467       -1.8355899257
 H          7.3283093039        1.6202803358       -1.5012319756
 O         -4.0191085932        5.4459297542       -1.3652572006
 H         -3.8185291328        4.5314278707       -1.0730418949
 H         -4.4765990537        5.3501133066       -2.2034431773
 O         -5.3786073126        4.9878020623        0.9886354354
 H         -5.0665053226        5.4877545484        0.2175356033
 H         -5.7390469590        4.1627942762        0.6136695635
 O         -0.9786515385       -0.8504119927       -3.4267996106
 H         -0.1287964199       -0.7756845285       -3.9042002600
 H         -1.4172123490       -1.6282165733       -3.8211163546
 O          1.8761032976       -2.8653864357        5.4144224557
 H          2.0235944824       -3.2429168264        6.2798121821
 H          0.8990417050       -2.6677498028        5.3496792459
 O          5.7806816222        1.5777881273        0.5933175027
 H          6.1915536307        2.2007607934        1.2137829407
 H          4.8385643067        1.5865464719        0.8135947187
 O         -1.0911346815        1.2656546850        0.0115274640
 H         -0.2285327283        0.8182086492        0.0899659652
 H         -1.0574638847        1.6976582481       -0.8497860428
 O          1.3271194034        0.2205898097       -0.1186422948
 H          1.5046888244       -0.4762277210        0.5220247088
 H          2.1692501701        0.6365762004       -0.3294378741
 O          1.5440422724        3.5813502451       -0.7345820382
 H          0.6871881494        3.2479465066       -1.0096725795
 H          2.0868615155        2.8001718634       -0.6129204801
