  536
       -906.13976680
 H         -0.2498335866       -0.2274809446       -1.5010025687
 C         -0.2121837422       -1.1291187840       -0.8915977493
 H         -1.1487624394       -1.6696047406       -1.0158876316
 C          0.0083925451       -0.7751372332        0.5761899455
 H          0.7529493980        0.0223943092        0.6286704138
 H          0.3827950730       -1.6555114882        1.0992606154
 N         -1.2404116585       -0.3939554920        1.2268805244
 H         -1.0334416530       -0.1250846210        2.1802651243
 H         -1.6328293095        0.4053094618        0.7528957412
 O          0.8250011653       -1.9769696913       -1.3728927862
 H          1.6435893273       -1.7505707386       -0.8894373234
 O          0.6165404757        2.3170309637       -0.7682261605
 H         -0.2693636215        1.9602456039       -0.9891606372
 H          0.6361684858        3.1997747264       -1.1842232702
 O         -1.0330616067        2.9054633899        1.6868471204
 H         -1.3620526211        3.8072708589        1.8871078558
 H         -0.2273935891        3.0344305859        1.1535910328
 O          1.6794332063        2.7924106714        1.8796546669
 H          1.9971328522        1.8860713334        2.0460227040
 H          2.4435285410        3.3251185896        1.6199269871
 O          1.9331246032        2.9776676117       -4.4048175847
 H          2.4228672123        2.7804348752       -5.2224149914
 H          1.2869464829        3.6655698487       -4.6603271111
 O          5.1080269356       -0.0085253037        0.6844350732
 H          5.7999142331       -0.3225181324        0.0762202452
 H          4.5577039941        0.6301462868        0.1896228196
 O          3.8528419369        3.1659178584       -2.6296669939
 H          4.5617572396        2.6783896473       -3.0857831565
 H          3.1355925762        3.2320044017       -3.3023342748
 O          4.1154400247       -0.4021255977       -2.0284045476
 H          3.8548398695       -1.3062031284       -1.7864532785
 H          3.2757962096        0.0712880334       -2.2138090661
 O          1.6083858430        8.0439921227       -2.1572116923
 H          2.3625623177        8.1647661973       -1.5768606476
 H          1.8558396570        7.3492135785       -2.7937128862
 O          2.8246494836        5.1047276905       -0.9585176340
 H          3.2298504452        5.9290663699       -1.2729466271
 H          3.1098015927        4.4172497663       -1.5781355021
 O          0.5426594280        4.2426321689        3.8381311960
 H          0.9230286108        3.6713450592        3.1301752914
 H          0.7764554196        5.1393412131        3.5882754418
 O         -2.0074642223        4.2600236937       -0.7507239654
 H         -1.2096669568        4.5477215129       -0.2850248092
 H         -1.8834352434        4.4552344190       -1.6823869170
 O         -2.8120516641        1.6891554515        3.3745418484
 H         -2.0265354265        2.0655489013        2.9619868693
 H         -3.1582521775        1.0217600058        2.7651472541
 O         -2.5809908151       -2.7204729945        1.1598381807
 H         -3.0094753719       -2.9010765191        2.0040749294
 H         -2.1457434427       -1.8395205837        1.2231659732
 O         -5.4859180956        1.0304462372        4.2945334111
 H         -5.9063697326        0.4157549869        4.9326502502
 H         -4.7087426051        1.3745055385        4.7886419758
 O         -2.0931890731        5.2792246092        2.3702002974
 H         -1.5220131641        6.0290629719        2.0611002649
 H         -2.0739593974        5.2776632793        3.3347222957
 O         -3.1863358326       -5.0245769279       -0.3081188739
 H         -4.1147718931       -5.0006218384       -0.0574428812
 H         -2.9996101568       -4.2116834254       -0.8227132581
 O          6.1950747296        2.9805209612        0.2548544791
 H          6.0998376420        2.4953559515       -0.5966102201
 H          5.3233396983        3.3648364174        0.4546417310
 O          5.4047679977       -1.0790135774       -4.2395599405
 H          4.8141857557       -1.7746730889       -4.5833508294
 H          5.0069045056       -0.7972111274       -3.3839981673
 O         -4.5705547339        3.9220114913       -0.0738177714
 H         -3.7122700912        4.2710694199       -0.3811167779
 H         -4.6248104194        4.1279362212        0.8718525056
 O          3.1034330917        0.4485710580       -4.9480356671
 H          4.0161701092        0.1963935557       -5.1143011092
 H          2.6898516897       -0.2981004209       -4.4713037440
 O          2.8718255639       -1.4527961851        0.3553841385
 H          2.6939490546       -2.1409319260        1.0315054397
 H          3.8040390232       -1.1895251203        0.4384843723
 O         -0.2235223306       -3.9455235859       -3.0669416661
 H         -1.0312951886       -4.4951199632       -3.0462176023
 H         -0.5494724138       -3.0378059275       -3.2017237144
 O          2.1476637856       -3.0134685942        2.3313531267
 H          1.7908832210       -3.8958081411        2.1356974504
 H          1.5647400908       -2.5960926005        2.9814800761
 O         -4.0542196196       -0.8159436395       -0.4705029008
 H         -4.4769864902       -1.4665510969        0.1255352237
 H         -3.5091224835       -0.2547808967        0.0931927309
 O         -5.4369670037       -2.5528047348        1.0693302624
 H         -5.9644336370       -2.7321263117        0.2667920220
 H         -5.1250946655       -3.4299253175        1.3355093692
 O         -6.0461553128        0.2836124812       -5.5579938222
 H         -5.7408023174        1.2015794172       -5.6491613322
 H         -5.3262765522       -0.2636404762       -5.9002340385
 O         -8.2353492511       -4.0174486133        3.5621124928
 H         -8.9265514525       -3.3392543577        3.4801718817
 H         -8.1728919070       -4.4064558367        2.6739517289
 O         -1.6039511371       -2.7313182954       -6.3382079971
 H         -1.5227456041       -2.3600614953       -5.4248752717
 H         -1.5774222256       -3.7056333185       -6.2181518315
 O          1.3082300604       -5.4202674902        1.3912692226
 H          0.8025898141       -5.9590469923        2.0253655057
 H          0.6382029839       -4.9732986051        0.8249291889
 O          6.0391092793        1.5149583683       -1.9388747530
 H          6.9184056401        1.1374350033       -1.7986706896
 H          5.4031053635        0.7830776075       -1.9218175767
 O         -0.1681920439        0.7740374656       -4.3571067801
 H          0.2802295249        0.7944437835       -5.2222847875
 H          0.5432822033        0.7443053412       -3.6826802620
 O          3.4431180293        1.9124006852       -0.2444006149
 H          2.4871408427        1.9787085323       -0.1423792363
 H          3.6515180645        2.2807419638       -1.1184544990
 O         -4.9435709104       -7.3734355860       -0.6624845120
 H         -4.8864534823       -6.8058324123       -1.4450545986
 H         -5.2368924274       -6.7833652184        0.0504904829
 O         -3.1510021171        1.7540455939        0.5246782150
 H         -2.4239981836        2.2857130934        0.9061547322
 H         -3.8424986710        2.4037816803        0.2922202189
 O          8.6305775995        1.3008608992       -1.1516342760
 H          9.2648713230        1.1238522223       -1.8637293788
 H          8.9978596906        0.8845314790       -0.3575229634
 O         -5.6320576888       -5.7405952507        3.8210072146
 H         -6.4877840484       -5.3933359960        4.0876913890
 H         -4.9716650992       -5.0550116598        4.0135225418
 O          0.9827102924       -2.2431726099       -6.5404981202
 H          0.0094839276       -2.3742903440       -6.6261933791
 H          1.3257501323       -3.1207475516       -6.3304062970
 O          3.8736414748       -4.2582963020        0.3611152531
 H          4.2192413582       -4.8401501207       -0.3448242086
 H          2.9230588781       -4.2190329380        0.1971952548
 O          2.8100925305       -7.3518859522        0.2864464419
 H          2.2569913042       -6.6108586168        0.6285192127
 H          2.2891188696       -7.7228179508       -0.4383096252
 O         -2.5369612896       -2.8234963226        5.8098455445
 H         -2.2155752064       -2.0583521317        5.2899301145
 H         -1.7371059256       -3.1644400675        6.2653128379
 O         -4.1236630259       -0.6298262152        2.6284206800
 H         -4.6486338196       -1.2815083790        2.1423066634
 H         -4.7496470608       -0.1159985739        3.1738959248
 O          8.7003292709        1.4489251924        4.4145123989
 H          9.0941348187        2.3178456114        4.5187779108
 H          8.1426087329        1.5184822013        3.6154851662
 O         -1.2896156187        3.1604221949       -3.6370219748
 H         -1.8484475324        3.6012782708       -4.3045108287
 H         -0.9004572883        2.3660753509       -4.0498784272
 O          3.8334370315        7.5067078978        0.9585289398
 H          4.1216472589        7.4947372314        0.0370236919
 H          4.5850880137        7.2015615959        1.4829328585
 O         -4.5127391329        3.5830970103        2.6569424520
 H         -3.8409466443        2.9060783406        2.8928948694
 H         -4.6979545900        4.0106820109        3.5077613661
 O          6.0444604852       -3.4971472019       -2.0751655905
 H          6.2374757316       -4.1766550242       -1.4175865077
 H          5.0636395980       -3.3735890743       -2.1125118673
 O          9.7190700396        0.1190722219        1.0572118753
 H          9.6015146545       -0.3263792241        1.9352260331
 H         10.1180698924       -0.5956506433        0.5111932103
 O          0.0872789906        1.3074250387        3.6850080841
 H         -0.1185363348        1.8780739407        2.9297321505
 H          0.9936821644        1.5418144237        3.9485837927
 O         -0.6539672379        7.3053113899        1.5387161222
 H          0.2510971922        7.2308266138        1.8583755843
 H         -0.6134835152        7.1899372307        0.5650335473
 O          1.8252671124       -1.6675091810       -3.9174213315
 H          1.2560609234       -1.6889870846       -3.1268580284
 H          1.3008899862       -1.8934675812       -4.6989718286
 O          4.4238869434        7.1651447158       -1.7779084717
 H          4.3653709056        7.4341946118       -2.6959731499
 H          5.0818495891        6.4262857051       -1.7580403654
 O          2.2754734403        5.9345945395       -3.8141356304
 H          1.6166504424        5.8839557500       -4.5192480627
 H          3.0920053047        5.5607493461       -4.2155222722
 O         10.1973650436        0.5903825101       -3.2789606570
 H         11.1422772336        0.4460252194       -3.2936190561
 H          9.7712660508       -0.2959624295       -3.1378695082
 O          4.1948244021       -0.1381366604        4.4472852237
 H          5.0413473540       -0.2953986668        3.9847568732
 H          3.5247858761       -0.0506598085        3.7368308751
 O         -8.6915233283       -0.1752354292        4.8556063696
 H         -8.9947034151        0.7410005235        4.8507947217
 H         -8.0124941943       -0.2712149383        5.5378327858
 O         -3.7522451280       -0.8404087851        7.2363786238
 H         -2.9272702734       -0.6165721813        7.7023117605
 H         -3.5055552374       -1.6560588854        6.7589088612
 O         -1.7539602007        1.4393569882       -1.6657223582
 H         -1.8322610616        2.1709978280       -2.3105461388
 H         -2.3769604717        1.6300393104       -0.9331010221
 O         -5.0427564292        2.8392776736       -5.2307638086
 H         -5.7109344749        3.5233312243       -5.1412612704
 H         -4.6989800746        2.6992930937       -4.2906333643
 O         -3.2732433929       -0.0946453703       -3.2081549135
 H         -2.7299323216        0.4174310576       -2.5688029589
 H         -4.1778877299       -0.0923461037       -2.8843964623
 O          5.8088755603        4.9623119339       -1.7410307029
 H          5.2148733713        4.2998637554       -2.1219884954
 H          6.7124254868        4.6392940155       -1.8985868837
 O          7.6896885202        5.1030887824        0.8692702766
 H          7.1870851743        4.3502763181        0.4854176205
 H          8.5297696296        5.1408181544        0.3877860029
 O         -0.5348536886       -4.1283325146        0.0024736587
 H         -0.1004593299       -3.4934951984       -0.5826619859
 H         -1.2960590095       -3.6622970726        0.4033618403
 O         -8.2086623027       -1.8547553032        0.7077177761
 H         -8.0188897853       -1.2602459487       -0.0516686270
 H         -9.1728456719       -1.9935473936        0.6914467140
 O          4.5955203305        1.9228668086        2.5671116800
 H          4.2803779793        2.5861124450        1.9367717753
 H          4.8404853580        1.1527900740        2.0291788335
 O          0.4520736199        4.5965248437       -2.2295892798
 H         -0.1573533344        4.1744252798       -2.8712024002
 H          1.1569762594        5.0195495865       -2.7458718984
 O         -4.4139391316        6.3233381032        1.6463889723
 H         -4.3874429727        7.1741833333        2.0823885456
 H         -3.6089124540        5.8268362631        1.9364640429
 O          0.4856567095        4.9098029643        0.5238896948
 H          1.1636256043        4.9147688395       -0.1654719557
 H          0.9249741023        5.3013607398        1.2912926022
 O         -6.1245691780        1.7523214020        1.4895754161
 H         -6.3098901325        0.9751601142        2.0490731489
 H         -5.6099899026        2.4025613147        2.0064259613
 O          2.3982739670        0.1892837217        2.4849190206
 H          1.7388142950       -0.3165498429        3.0020095725
 H          2.5773666802       -0.3282871784        1.6784534392
 O          1.7918380146       -4.7929532951       -1.4637900541
 H          1.8054003810       -5.7440132185       -1.6599269840
 H          1.0175689202       -4.4380062364       -1.9365459277
 O          6.9433447530       -1.2672022053       -0.8869677534
 H          7.3977343269       -1.7323017622       -0.1575735840
 H          6.4850830404       -1.9841891933       -1.3738452660
 O          8.2656513297        3.8297975382       -2.0507417494
 H          8.2236952269        2.9624189207       -1.6030048196
 H          9.0151523899        4.2782039674       -1.6363681079
 O          7.3234824900        0.1261588282       -5.8345948526
 H          7.7534022302        0.9073528944       -5.4650832805
 H          6.6644710364       -0.1545135080       -5.1758880050
 O         -1.1453694385       -0.2586450756        7.7432835735
 H         -1.0692770939        0.5032793218        7.1397827044
 H         -0.3285542665       -0.7550677973        7.6541303403
 O          0.8707849317       -1.3318672185        4.1005216562
 H         -0.0550503829       -1.0608760909        4.0836861333
 H          1.1523338046       -1.2800856870        5.0366039176
 O         -2.3568735911       -5.4449775248        2.1197072650
 H         -2.5893083186       -5.2205506117        1.1729185711
 H         -3.0504793069       -5.0501823430        2.6636955026
 O          3.9856230148       -3.1283532906       -5.2618022488
 H          4.6708525072       -3.8004641800       -5.0711774389
 H          3.1241756100       -3.5617129099       -5.1266884420
 O          1.1832489032        0.6005351669       -6.7178200656
 H          1.0017190912       -0.3312669574       -6.8826984325
 H          2.0061527422        0.6089679918       -6.1648632006
 O         10.1599658550        4.6590786484       -0.2579023747
 H         10.2612074689        3.9014621837        0.3762116080
 H         10.9371443998        5.2037234654       -0.1433472303
 O         -2.7964953613       -2.8531266000       -1.8195138231
 H         -3.2292141264       -2.9859264423       -2.6731378726
 H         -3.2536298342       -2.1200858819       -1.3743869191
 O         -6.1262073357       -2.5010458848        4.1106334832
 H         -6.3398274820       -1.7625900964        3.4939734791
 H         -6.8767777286       -3.1241761626        3.9978903347
 O         -8.0020889350       -0.1072678862       -1.2403588366
 H         -8.8539723339       -0.2503769462       -1.7095359675
 H         -8.0503331528        0.7845334024       -0.8372518103
 O         -4.1975355700       -2.5658024739       -4.1677932782
 H         -3.9794549963       -2.0410120993       -4.9694675666
 H         -4.7597713620       -1.9902020113       -3.6292904174
 O        -11.6015090675        0.2427911762        0.0000751015
 H        -10.9968255832        0.3066284238        0.7648207034
 H        -11.6482106724        1.1682269330       -0.3147901117
 O         -6.7187931634        4.4696307624       -3.4331251259
 H         -6.8367984764        3.5033968178       -3.4026573533
 H         -7.0206363228        4.7614400086       -2.5608513790
 O          3.9620668566        4.2295578601        1.2328092231
 H          3.5517516075        4.6293120282        0.4308974666
 H          4.4698806412        4.9308535522        1.6814635374
 O         -1.5311558106        6.0863668592       -3.7683409698
 H         -1.4271170445        6.6612278235       -3.0021157982
 H         -2.4570043258        5.8085357393       -3.7958791170
 O         -5.5477849851        1.2779240197       -1.1104240922
 H         -5.0586252945        0.4386597921       -0.9738767651
 H         -5.7537501458        1.5777125029       -0.2077970214
 O          7.6437877174       -2.5027379574       -4.8162675874
 H          6.8115641282       -2.1021457063       -4.4866883981
 H          7.9291215102       -1.9079173839       -5.5183388939
 O          8.0514481742       -3.0094307654        0.8360602717
 H          7.9351254456       -3.1448448659        1.7942703882
 H          7.7279628291       -3.8225539808        0.4138917505
 O          3.6657423348       -1.3949297527       -7.3347862712
 H          3.9217621210       -2.0410517288       -6.6535885487
 H          2.7140708350       -1.5054769441       -7.4216587353
 O         -4.0193272081        2.6127176802       -2.8744349437
 H         -3.9260804653        3.5792829179       -2.7541798466
 H         -4.5778182230        2.2781043534       -2.1505280356
 O         -4.0748830075        5.2491206934       -2.9419371255
 H         -5.0123788474        5.2359311106       -3.1859196005
 H         -3.9716442355        5.8719457150       -2.1909470490
 O         -7.0625025817        1.7395009058       -3.2836880445
 H         -6.7691540030        1.1020498612       -3.9500271731
 H         -6.5816449509        1.5254999968       -2.4559461945
 O          5.0216484290        0.9387370438       -7.0083501072
 H          5.9465762129        0.6514767369       -6.9221236404
 H          4.5163720726        0.1290850458       -7.2224110293
 O         -9.4485150051        2.3585394061        3.9866609949
 H        -10.0511370714        3.1013864935        3.9978843982
 H         -8.5370655593        2.7355727781        3.9891104090
 O          3.5084352839       -3.0105855619       -2.3003205884
 H          2.9122960253       -3.7055780440       -1.9450848139
 H          3.0560329388       -2.6562906299       -3.0841632149
 O         -9.9668486818       -2.6649249812       -3.7809131526
 H        -10.2584428724       -1.8394107786       -3.3647555989
 H         -9.1634462776       -2.4428191783       -4.2745387160
 O          7.1255591791       -5.4086199731       -0.2651574326
 H          7.9175413048       -5.8340227222       -0.5927895890
 H          7.0093029066       -5.7269977212        0.6894861180
 O         -5.4934720679       -5.3379912001        1.1768954327
 H         -5.4933741656       -5.6539120425        2.1022309314
 H         -6.4267056672       -5.1223696110        0.9808081845
 O          1.6018087079       -4.5236196400       -4.9229462751
 H          2.1995227065       -5.1943080067       -4.5411980693
 H          0.9843683069       -4.2688252760       -4.1993235424
 O          5.5120721411        2.4476335869       -4.6252669211
 H          5.3044309876        1.9535998679       -5.4309642331
 H          6.4683856238        2.3901235162       -4.4841236808
 O          8.3854242470        3.9619198348        3.2364654181
 H          7.5294310306        3.8082583834        3.6677813488
 H          8.1786239123        4.4544097801        2.4195276470
 O          3.4399040360        4.8654263975        4.4082897274
 H          4.3442942754        4.4720100883        4.3168607368
 H          3.4092882756        5.2924936285        5.2634753622
 O          9.1983068189       -1.0415415112        3.3653838049
 H          8.2443412403       -1.2120771802        3.3216236639
 H          9.2939529275       -0.3061170104        3.9858541764
 O          1.5847348319       -1.1715784368        6.6897366378
 H          2.4536522879       -1.6268100294        6.6715881440
 H          1.7995633932       -0.2318986809        6.8567376513
 O         -2.7407552388        4.2960775589       -5.6452599397
 H         -3.6279871793        3.9066949273       -5.6203414510
 H         -2.2995463384        3.9737199011       -6.4351070560
 O         -7.5121965215       -1.9957995377       -4.8783510953
 H         -7.2119480012       -1.3284701210       -5.5059082356
 H         -7.0604858220       -2.8399980871       -5.0793410955
 O         -2.8008256422        1.1399351305       -5.5342306634
 H         -2.8483903789        0.7761645682       -4.6194838343
 H         -3.5310885237        1.7636081606       -5.5962772174
 O          2.5821464174        2.2699258451        4.3975748014
 H          2.7183011773        3.2318761420        4.4239792427
 H          3.2857073657        1.9310582237        3.8137661692
 O          0.2743025181        4.8463776709       -5.4029325601
 H         -0.1431884346        4.2012869812       -5.9944179924
 H         -0.4512262093        5.2921506967       -4.9267831944
 O        -10.8500399472       -2.4248699324        0.4780986353
 H        -11.3544573356       -1.6417965255        0.2182781231
 H        -11.0220838646       -2.5729440329        1.4142527140
 O         -3.4985288021        6.8796553944       -0.9256092671
 H         -2.5367917221        6.9425660202       -0.8558906699
 H         -3.8468987490        6.6679140354       -0.0441615146
 O          4.1990588810       -6.0190043490        2.3834259507
 H          3.7452785196       -6.8053249014        2.0693573662
 H          4.0165051375       -5.3277376678        1.7053716991
 O         -1.2007495685       -1.6105994360       -3.9806600518
 H         -2.0503707524       -1.4067498469       -3.5591133520
 H         -0.8039783335       -0.7246599032       -4.1489464801
 O          6.0018338594       -4.7298042154       -4.4782841179
 H          6.0623030839       -4.3530656310       -3.5722054577
 H          6.7527149166       -4.3391196460       -4.9388840312
 O         -2.5600110302       -7.8526454105        0.5479382127
 H         -3.4057676567       -7.8315998200        0.0515424580
 H         -2.6624722227       -7.1828640021        1.2359141317
 O          5.7788955023        3.6077251586        4.2191001570
 H          5.6541013921        3.0552041216        5.0330207427
 H          5.5136710741        2.9815517190        3.5081292673
 O          7.3391488086        0.4769285361        6.6140220286
 H          7.9096254752        0.8109464172        5.9019610703
 H          7.2276145725       -0.4736058461        6.4412288123
 O         -6.0903684241       -1.0774673056       -2.8111211886
 H         -6.6796722411       -0.6041856174       -2.1882681100
 H         -6.6689807368       -1.3362965926       -3.5598387014
 O          1.9589916236        6.2635840192        2.4446764994
 H          2.5397857023        6.7824405898        1.8550235099
 H          2.5674064297        5.8117694424        3.0515837460
 O         -9.1291386314       -3.7245475511       -1.4935466331
 H         -9.4294305475       -3.4915759425       -2.4003657292
 H         -9.8047126410       -3.3555694890       -0.9114777938
 O         -1.7734502174        4.8022762746        5.1122181407
 H         -1.5078381054        4.9121414570        6.0265083406
 H         -1.0012506466        4.3892740991        4.6778901361
 O         -3.7694339224        1.7159959672        6.1633244537
 H         -2.8081856099        1.8422056299        6.0291750041
 H         -3.8487380933        0.8743723522        6.6456683368
 O          3.0877556462        2.8701078752       -6.8835177736
 H          3.8199237491        2.2383689609       -6.9857357524
 H          2.3634072745        2.5208116992       -7.4062955191
 O          7.4147591481        1.3989027998        1.9815941649
 H          8.1476480181        1.0128098195        1.4851013290
 H          6.9390361514        2.0006721443        1.3650953336
 O         10.3704833519       -2.0539830439       -0.3280846396
 H          9.6906977408       -2.5306932634        0.1779460914
 H         10.0283180007       -2.0027980914       -1.2335737735
 O          4.0180439068       -2.1902375623        6.1165765578
 H          4.0296229619       -1.4349656331        5.4861522105
 H          3.8662980129       -2.9851449535        5.5765870944
 O          5.6779745748        5.9621345928        2.3988476680
 H          6.4359480791        5.8313757444        1.7981414244
 H          5.8994753889        5.4831845186        3.2042898115
 O         10.3418733631        2.7796881503        1.5781774500
 H          9.6925853870        3.0477522142        2.2483599089
 H         10.2274342192        1.8276759953        1.4248330061
 O         -6.3068734892       -0.7397014529        6.1240581547
 H         -5.5454421207       -0.7643934566        6.7217864527
 H         -6.2160612172       -1.5243604635        5.5414964690
 O        -10.0184523111       -1.8662447565        3.1589623924
 H         -9.8384611874       -1.0984199306        2.5920870019
 H         -9.8492974499       -1.5281987212        4.0466037002
 O          6.4289962666       -0.7450024130        3.1334659922
 H          6.6792747828        0.0601716783        2.6266254254
 H          5.9184280785       -1.3262467905        2.5437913170
 O          8.9575337783       -1.6186164115       -2.6562673748
 H          8.5521200765       -2.0761312529       -3.4217441358
 H          8.2136504542       -1.3565176785       -2.0706775678
 O          8.2838310372        2.3135619525       -4.3322514439
 H          8.2594577747        3.0095916333       -3.6512010941
 H          9.0164265942        1.7390918983       -4.0648220192
 O         -0.1233567370       -3.4753277325        6.7312600750
 H          0.4631211131       -2.7150973744        6.8259913017
 H          0.3091948067       -4.0711429554        6.0954036146
 O          0.9337376359       -4.8971731059        4.6373518897
 H          0.6855444684       -5.7989471957        4.4136491835
 H          0.4113724687       -4.3294254778        4.0202196834
 O          7.1831299193       -3.6997849122        3.3212153219
 H          6.2865921007       -3.4018507547        3.0419025698
 H          7.3027421376       -3.3698560668        4.2222688980
 O         -0.5851817389       -3.5265527010        2.9834265120
 H         -1.2068382714       -4.1678173543        2.5924585216
 H         -1.0979998570       -2.7961703323        3.3344657775
 O          4.2843606267        4.8285327576       -5.1783702704
 H          4.8235133816        4.0750614011       -4.8733025693
 H          3.8233590578        4.4888766902       -5.9542065449
 O          4.6148944297       -6.2001905823       -1.2790579185
 H          5.5260138154       -6.3284529593       -0.9920353278
 H          4.0298685745       -6.7527328011       -0.7054978672
 O         -2.3738123996       -5.5738660537       -3.2306317751
 H         -3.2982428746       -5.4009205218       -2.9858473358
 H         -2.0011607225       -6.0858548198       -2.4825294776
 O         -0.2869736774       -6.9245764650        2.9866778391
 H         -0.4278314074       -7.8076364707        2.6433860728
 H         -1.0891117850       -6.4167763081        2.7501309616
 O          1.3228126271       -7.4358714670       -1.9807977215
 H          0.4016202450       -7.2046979483       -1.6947832522
 H          1.2889640739       -7.6780412887       -2.9050718895
 O          1.8371104538        0.8977452454       -2.5962499537
 H          1.4339596813        1.4009687000       -1.8515169338
 H          2.1289178988        1.5501787564       -3.2527862715
 O          4.8706865363       -2.7668091140        2.3713882529
 H          4.1827128452       -3.0236456067        3.0129652654
 H          4.6025299450       -3.2010312766        1.5456896964
 O         -9.6639543263        0.6150763989        1.8649281325
 H         -9.1393105065        1.1057382340        1.2150813170
 H         -9.6967201884        1.1897499489        2.6493027963
 O        -10.3853406794       -0.3189544568       -2.3588411615
 H        -10.3703685677        0.5321980967       -2.8237268307
 H        -10.9354498355       -0.1966900818       -1.5579699416
 O         -7.1112820918        4.4832599584       -0.7171959717
 H         -7.2934644184        4.9115676623        0.1396437996
 H         -6.1627388068        4.2472213904       -0.6410557065
 O         -5.9647983118       -4.2268643640       -5.1373976325
 H         -5.2101566975       -3.6919350713       -4.7753574243
 H         -5.6540346748       -4.6263252690       -5.9488227581
 O         -8.0135237189       -4.5375158622        0.8969416955
 H         -8.4962572683       -4.8184516102        0.1136573213
 H         -7.9480011813       -3.5609070734        0.8169669491
 O         -3.7784316238       -1.1794315316       -6.4155723916
 H         -3.0699023208       -1.7915590059       -6.6884381871
 H         -3.3129070268       -0.3389539551       -6.2130430285
 O        -10.8656755277        2.6823064822       -0.8407438632
 H        -10.5889381287        2.6321316920       -1.7677290473
 H        -10.0373427290        2.6904225236       -0.3417532626
 O         -7.0532377716       -0.4929206672        2.6704173908
 H         -7.7365053233       -0.3154237530        3.3421313843
 H         -7.4811081137       -0.9995132685        1.9459962046
 O         -5.0749022991       -5.2736493832       -2.6046156935
 H         -5.5418796900       -5.2487307451       -3.4468049567
 H         -5.4981056584       -4.5830285676       -2.0562397013
 O          2.4022461232        1.4316369985        6.8851032236
 H          2.4862398253        1.6146291146        5.9202985123
 H          3.3044834655        1.5037599333        7.2132646011
 O         -3.7997965290       -3.6406510353        3.6175855408
 H         -3.3098288792       -3.4857046991        4.4517734657
 H         -4.6360010085       -3.1357234558        3.7262612978
 O          3.5671980148       -4.2149250301        4.3831353798
 H          3.9119989144       -4.9632794070        3.8754047715
 H          2.6197260502       -4.4105825066        4.5064930484
 O         -8.2436325811        2.2356093633        0.0706967211
 H         -7.5074530283        2.0967980508        0.7138808967
 H         -7.9538592090        3.0629991432       -0.3818790045
 O         -0.9987765176       -6.5653295317       -1.1649759161
 H         -0.9044612571       -5.6845494761       -0.7463852686
 H         -1.5601747292       -7.0948694790       -0.5506353320
 O          0.7150766740        3.6619497096        6.5691549107
 H          0.8901325016        3.8336460766        5.6289041564
 H          1.3419663037        2.9759667201        6.8513522006
 O         -1.1162129519        1.7969362336        5.9613518956
 H         -0.7070146795        1.6060364004        5.0857379442
 H         -0.5796298651        2.5197084164        6.3399343466
 O          6.7326054714       -2.0407541618        5.5850672452
 H          6.5854419115       -1.5263914825        4.7768973439
 H          5.8500563949       -2.1995581974        5.9663273744
 O         -4.5288762153        4.2155434122        5.3069575701
 H         -3.6314832728        4.5741177009        5.2511065594
 H         -4.3994439805        3.3530909250        5.7362971036
 O         -6.9991148546        5.1548784589        1.9010455183
 H         -6.9536076114        4.4422009102        2.5534581831
 H         -6.1166159312        5.5537537295        1.8682627681
 O          5.1292825898        1.8530103479        6.0800178598
 H          5.9380012123        1.4155833967        6.4256751951
 H          4.7293383504        1.1800217309        5.4947125228
 O         -6.9522654171        3.2315628592        4.0747471451
 H         -6.5268590126        3.7960162737        4.7273625763
 H         -6.4287509885        2.3898862313        4.0859349767
 O          3.5558539890       -6.0676165189       -3.8529429763
 H          4.3924015586       -5.8561737852       -4.2814725035
 H          3.7760880327       -6.1308709704       -2.9102410565
 O         -6.4331407084       -3.2877990251       -1.3258163840
 H         -7.3889929099       -3.4653944609       -1.4164223702
 H         -6.2417197272       -2.5029305173       -1.8771469089
 O         -1.1958933263       -5.2899154460       -5.7103249344
 H         -1.6614136841       -5.4793076504       -4.8762270434
 H         -0.2530488368       -5.2635384520       -5.5055990135
 O         -0.6196020199        6.9277414158       -1.1747685444
 H          0.0734959995        7.5386860884       -1.4895379648
 H         -0.2575543577        6.0429116834       -1.3904133428
 O         -1.9255670519       -0.8707799835        4.1169311904
 H         -2.7222266372       -0.9067346641        3.5400765786
 H         -1.9425892934        0.0159333926        4.4967393788
 O         -9.6998523799        2.1541677080       -3.3209600188
 H         -9.8310034298        2.7172333660       -4.0827760222
 H         -8.7293897327        1.9957444590       -3.2562891951
 O          6.8618594961       -6.1275562247        2.1780240112
 H          7.1373001129       -5.3562621153        2.7088470918
 H          5.8967172294       -6.2033516211        2.3345398321
 O         -0.7893901634        2.5966764048       -6.7553184925
 H         -0.0519028557        2.0070828357       -6.9557212434
 H         -1.4405651630        2.0288393164       -6.3040697005
