  251
       -422.17756963
 H          1.1006080627        1.8339991869        1.5287240344
 C          1.7466998009        0.9993506854        1.2609686967
 H          2.7614934319        1.2307233742        1.5970521052
 C          1.7584242146        0.7789460551       -0.2481917338
 H          1.8005544671        1.7352945919       -0.7612534571
 H          0.8423438832        0.2684284397       -0.5443659076
 N          2.8966287371       -0.0180317031       -0.6844079965
 H          2.9339011854       -0.8752630533       -0.1410463791
 H          3.7567312403        0.4902189211       -0.5096706452
 O          1.2832991763       -0.1476415533        1.9701841195
 H          1.1670794377       -0.8924581929        1.3352827547
 O         -0.9692191263        0.9227942344        3.1131271036
 H         -0.2242195507        0.4562877328        2.6923490836
 H         -0.9470991077        1.8449137374        2.7972644683
 O         -0.7592983050        3.5712186507        2.6938665852
 H          0.0579488224        3.8899187278        3.1381087892
 H         -1.0765465785        4.2895399339        2.1229945749
 O          0.6039231899        6.3757859562       -0.1071483879
 H          0.9105442528        5.4823908112        0.2042492215
 H          1.1768783505        7.0211534857        0.3059901319
 O          0.3075220354        0.3542591581       -3.8497075622
 H         -0.4657353994        0.4447749482       -3.2570802083
 H          0.5205386402        1.2526797903       -4.1525920223
 O         -3.0375006755        2.4393149114        1.5132269469
 H         -3.8537982787        1.9341046500        1.4085798600
 H         -3.3072612258        3.2975410389        1.8819811289
 O          0.0843358253       -1.5579404817        5.0061701590
 H         -0.2826172088       -0.8003201289        5.4831104740
 H         -0.4221025535       -1.6230890032        4.1662566216
 O         -0.6511635240        1.0885285709        5.7311691301
 H         -1.3302206247        1.6755838926        6.0686805752
 H         -0.7942410427        1.0574809264        4.7537127951
 O         -1.7049167546        2.4143311051       -4.6800585367
 H         -0.8780809209        2.6612872360       -5.1075849392
 H         -1.5916291176        2.7236877582       -3.7519650591
 O          4.4231835189        2.0465314153        3.7413533371
 H          3.7719247448        2.0538329579        4.4506516372
 H          4.3569965557        1.1810504403        3.2964649004
 O         -2.5220621104       -0.0028211189       -5.5515710557
 H         -2.3252562433        0.0288702807       -6.4871364313
 H         -2.1495092999        0.8227749287       -5.1645062640
 O         -6.3262454635        2.1425062784       -3.6521452104
 H         -5.6085771166        2.7980831712       -3.8082531603
 H         -6.7119948479        2.4146896753       -2.8017348165
 O          5.9007928373        1.4630596592       -2.8075616097
 H          5.7278204193        1.2833276129       -1.8654600104
 H          5.9922484626        0.5777609721       -3.2074347195
 O         -7.1139723404        2.6623676603       -1.0927971861
 H         -6.5696871385        3.2309978510       -0.5217654347
 H         -7.7949804564        2.2278878788       -0.5504960724
 O         -3.6919125853        2.2056097113       -1.2907028219
 H         -4.0815026936        2.8031334753       -0.6337866162
 H         -4.2687684869        1.4260641450       -1.3036034505
 O          0.9322491404       -2.1269631944        0.1567582034
 H          0.0855487582       -1.9943860410       -0.3248282620
 H          0.9624767852       -3.0639158606        0.4118743356
 O          3.3087178979       -2.3779523886        1.5088606685
 H          2.5960642200       -2.6908456986        2.0836037625
 H          4.0639462300       -2.9789374831        1.6754623497
 O          4.6163271120       -0.1751532517        2.1721261343
 H          4.0511982153       -0.9397601467        1.9107895858
 H          5.0742092810        0.1153195932        1.3552778662
 O          5.1343268794       -2.1899700784       -1.0860736031
 H          4.1933637778       -2.4026155030       -1.2510083418
 H          5.5268043618       -3.0170527977       -0.7461658213
 O         -4.3742117251       -4.3701376785       -4.4814664972
 H         -3.8461408840       -5.0968931657       -4.1355874389
 H         -5.0535051964       -4.1940601715       -3.8062552916
 O         -5.1338696175        4.0861988784        0.2026096906
 H         -4.9791865823        4.3322420908        1.1255947076
 H         -4.5619863406        4.6663454397       -0.3312913057
 O          8.2829522699       -1.0331180433       -2.3038882558
 H          7.5388229870       -1.1106754522       -2.9108341211
 H          8.1729907929       -1.7250947723       -1.6323808785
 O         -3.6852725032       -2.0365781587        3.0947828338
 H         -3.8308940878       -1.8526774717        2.1451356257
 H         -3.7853419112       -1.1698784747        3.5393267539
 O         -1.0986552119       -2.0659901594        2.6577374114
 H         -2.0491498911       -2.0729555823        2.9236754430
 H         -1.0491110607       -1.4241621598        1.9175805709
 O         -5.3605537786        1.0258996713        1.6141197783
 H         -5.4019859461        0.6876920998        0.6969725097
 H         -6.1837956276        0.7394812868        2.0328411751
 O         -2.7904245252        3.1976795059        4.5534653740
 H         -2.0052592758        3.2804962144        3.9791823493
 H         -3.1643943582        2.3187653404        4.3811067844
 O         -1.7796580295        5.5652186147        1.0305182282
 H         -2.3492008532        5.4596031972        0.2552895538
 H         -0.9898534267        6.0156076908        0.6883420353
 O          6.3155688658       -1.6536878380        3.5668996572
 H          5.7019929541       -1.0432582550        3.0885748857
 H          5.8902687755       -1.7988061080        4.4241038165
 O          2.7992561473       -0.4973008696       -3.2513926098
 H          2.8675956864       -0.2894549018       -2.2624494268
 H          1.8838603469       -0.2701684660       -3.4905696234
 O         -3.2122007299        5.2485767844       -1.3772276944
 H         -3.7165610804        5.5074549456       -2.1513565400
 H         -2.5428663346        4.6121925853       -1.7259664519
 O          3.5332395836       -5.3221419083       -1.0027527189
 H          3.1850872826       -4.4579017205       -1.2860856422
 H          3.1717289113       -5.9557227840       -1.6240714173
 O          6.6601859136        1.9909270446        1.9057559004
 H          6.1935908271        2.0529572016        2.7444745846
 H          7.1536774139        1.1603208440        1.9027698662
 O          1.4121466033       -3.5243735327        3.2992240914
 H          0.6713404399       -4.0264175627        2.9487998926
 H          1.0380161026       -2.9479287569        3.9771618571
 O         -6.4993085001       -2.1760921243        0.7810366606
 H         -6.0393081470       -3.0496289735        0.7107633075
 H         -6.9867915827       -2.0585995222       -0.0435368082
 O         -8.5901979038        0.6920890441        0.0672265481
 H         -8.4631756440       -0.0765480208       -0.4983799712
 H         -8.3649617268        0.4081984525        0.9651416083
 O         -3.9400972300        4.7482234016        2.6584395148
 H         -3.6724872538        4.3510620537        3.5146395212
 H         -3.2241991321        5.3370578859        2.3883984718
 O          1.4929216222        4.2218006655        3.9239956597
 H          2.2665463673        4.3768125357        3.3700103432
 H          1.6969554003        3.4324933625        4.4577259555
 O          6.0173341322       -4.5551090028       -0.1286783541
 H          5.2341396791       -5.0092687078       -0.4883803646
 H          5.8253100470       -4.4413237293        0.8241056336
 O         -2.5302890288       -4.0092488502       -0.5075657284
 H         -2.1002680199       -3.1670697207       -0.7575982865
 H         -2.4056712672       -4.5743783412       -1.2992523912
 O         -7.4452289597       -1.5405553977       -1.7765892569
 H         -7.7014667745       -1.0719775119       -2.5960814778
 H         -7.0146195473       -2.3674743049       -2.0765421027
 O         -4.1078072840        3.5735967938       -3.5987995046
 H         -3.4255998348        3.3091292390       -4.2251474221
 H         -3.8815181860        3.1102281455       -2.7595402218
 O         -2.4481157217       -2.5253186619       -4.3515412916
 H         -2.5247463640       -1.6722713026       -4.8098044584
 H         -3.2027314374       -3.0895084361       -4.6284336741
 O          1.9607361808        1.8571551458        5.2695719001
 H          1.0703588875        1.7449132670        5.6422473504
 H          2.1798214131        0.9669642722        4.9275653962
 O         -1.3007547630        3.6051761625       -2.3113569505
 H         -1.1613215716        3.0839513043       -1.4852857789
 H         -0.4944454390        4.1447478299       -2.4299860854
 O          2.6109482354       -2.8528233237       -1.8270498952
 H          2.5671045042       -2.2144294128       -2.5577500205
 H          2.0146024451       -2.5168945348       -1.1218808460
 O          5.7141124273        0.3401800197       -0.2609779267
 H          6.6580996667        0.6112191377       -0.2465894344
 H          5.6734081820       -0.5942131406       -0.5325349264
 O          2.9991107797        3.4572389483       -1.5745632558
 H          3.8328874002        3.4422814766       -1.0656174781
 H          3.1761292118        2.9354819805       -2.3896974750
 O          2.4532604474       -0.6261182847        4.3248412120
 H          2.2602827454       -0.5026964236        3.3746403286
 H          1.6189047742       -1.0091000661        4.6830666923
 O         -1.9310695929       -5.0479646658       -2.8879665656
 H         -1.9706430276       -4.2280219040       -3.3920483098
 H         -0.9727952221       -5.2133821394       -2.7513411066
 O          8.2808866672        1.0603496370       -0.6152111125
 H          8.4199407415        0.3919629356       -1.3193736268
 H          8.6801602664        0.7128633952        0.1875833912
 O          0.9829900263        5.0223826773       -2.5502755749
 H          1.7846087242        4.5666467193       -2.2332558555
 H          0.8018508702        5.7146862819       -1.8966303097
 O         -3.8895060628       -4.7986830536        2.7991670947
 H         -2.9615515319       -4.9644992210        2.5784220832
 H         -3.9211659350       -3.8841566668        3.1174388631
 O         -1.2177098576       -4.5675617971        1.7467540574
 H         -1.7417368715       -4.4721016818        0.9189256958
 H         -1.1470100432       -3.6437173698        2.0838540189
 O         -5.6887357075        0.3829292276       -0.9999612597
 H         -6.2338392628       -0.3707253130       -1.2906876968
 H         -6.2521569420        1.1746722504       -1.1151573153
 O          0.7062155900       -5.0337485798       -2.3979104311
 H          0.8096435301       -4.9521763621       -1.4335561961
 H          0.9836541502       -4.1881011477       -2.7715087126
 O          1.0529635880        2.9436932635       -4.5906937961
 H          1.9966408280        2.7243845442       -4.5372173645
 H          0.9531699739        3.7452259048       -4.0617921865
 O          1.0053142340       -4.8100724868        0.3485453896
 H          0.2158964458       -4.9543422513        0.9177937865
 H          1.7445003291       -5.3292077602        0.6685801596
 O          0.2338197956       -2.4209077090       -3.8335688468
 H          0.3734644888       -1.4835142367       -4.0355967888
 H         -0.5834670773       -2.6573388006       -4.2935240802
 O         -5.0513523948       -4.3524809661        0.4078575669
 H         -4.8271556153       -4.6851760742        1.3009076066
 H         -4.1734251945       -4.1407065614        0.0278091735
 O          4.3884900915       -2.0055532834        5.5132351944
 H          4.3152270551       -1.7558136494        6.4337843452
 H          3.7109528374       -1.4797611596        5.0264885782
 O          3.5878515592        3.9957495191        2.0516922659
 H          4.2158335265        3.9892796227        1.3080874619
 H          3.9337988175        3.3146940933        2.6655492989
 O          1.3851727700        3.9622706473        0.5392095331
 H          1.8780883164        3.7337301126       -0.2693038748
 H          2.0830523540        3.9877732978        1.2286702087
 O          3.7884727532       -4.4806684035        4.3937461385
 H          2.9121439309       -4.2703110608        4.0345289049
 H          4.0400921823       -3.7106460328        4.9296699986
 O         -1.8805606025        0.4656329425       -2.2759069501
 H         -2.0163363534        1.1736568586       -1.6316784669
 H         -2.7146263628        0.4253220921       -2.7756303947
 O          5.2385414453        3.3299079168       -0.0298250819
 H          5.9747527344        3.6113536560       -0.6150606033
 H          5.6800350221        2.7327356749        0.6031529886
 O         -1.3865248942       -0.3308164390        0.6329414154
 H         -2.3447323858       -0.4504281795        0.5941086952
 H         -1.2074345159        0.6049069031        0.4675447791
 O          7.3654796955        3.5140599938       -1.6493663223
 H          7.9056504545        2.8790490426       -1.1572695914
 H          6.9769842507        2.9872221301       -2.3623226727
 O         -7.9515123769       -0.0383864651       -3.9619972168
 H         -7.3562062657        0.7313820611       -3.9651745570
 H         -8.8330301041        0.3014555134       -4.1165295199
 O          8.1304611029       -2.8102021464       -0.1474359637
 H          7.4316928409       -3.4877703374       -0.1783981423
 H          8.9577474942       -3.2753158312       -0.0201273601
 O         -7.5715308079       -0.3908019133        2.4443092128
 H         -7.8069651196       -0.7084952829        3.3153080268
 H         -7.1852807671       -1.1490977797        1.9562443226
 O         -4.3529807700        0.2893935062       -3.5278741444
 H         -4.0443849160        0.1860600562       -4.4353130561
 H         -5.1067075446        0.9136061931       -3.5407349146
 O         -3.9477434328       -1.2930601752        0.5102773077
 H         -4.9121664800       -1.3799823009        0.6074462258
 H         -3.7719653742       -1.6006430787       -0.3957941570
 O         -5.8468703337       -3.6839156529       -2.2233948287
 H         -5.7932590448       -4.2314391953       -1.4298848537
 H         -5.0941195189       -3.0467484003       -2.1411443830
 O         -3.5973342578        0.5669872886        3.7212808777
 H         -2.6987740676        0.6387630960        3.3465420094
 H         -4.2101588371        0.7936074584        3.0015808447
 O         -1.0778765590       -2.0065275463       -1.5317577372
 H         -0.5725026400       -2.2305668217       -2.3396582932
 H         -1.4101121375       -1.0970041898       -1.6546144884
 O         -3.8949500464       -1.9192412699       -2.1184150039
 H         -4.2459741907       -1.0871263764       -2.4882053597
 H         -3.2038038834       -2.1989218714       -2.7464714484
 O          3.5219400553        2.0487293017       -3.7866811916
 H          4.4845153445        2.0266077597       -3.5999632737
 H          3.2536657664        1.1092836759       -3.6949964817
 O         -0.9353489912        2.3728022557       -0.0256645615
 H         -1.7460565853        2.5051556595        0.5221874751
 H         -0.2492893093        2.9391789033        0.3570068125
 O          8.0041305705       -0.5981296494        1.6473612102
 H          7.6495086756       -0.9763603647        2.4635093011
 H          8.0021973533       -1.3284511885        1.0101071326
 O          5.6094604777       -1.1427896059       -3.4990487588
 H          5.4898355613       -1.5833820465       -2.6297391297
 H          4.7097515905       -1.0164126716       -3.8221221792
 O          5.3761296071       -3.8610238056        2.3599749420
 H          5.8778027296       -3.1255188189        2.7741060151
 H          4.8779424661       -4.2818024090        3.0962157891
