  144
       -244.35960770
 O         -4.3114757486       -4.2474214903       -0.1746631242
 H         -3.7220742814       -4.1273831229       -0.9338754099
 H         -3.7585502752       -4.1856354587        0.6204864953
 O          4.3951463841       -1.8211409783        1.4225201975
 H          3.7700294134       -1.3461747182        0.8349692538
 H          4.6678958540       -2.6040528832        0.9258197873
 O          0.6116582389        1.4228820986        4.8677296163
 H          0.5244908630        1.6574635281        5.7911500310
 H          0.0628725363        0.6099099754        4.7277982624
 O          0.4757986700       -1.0286887094        1.9781053625
 H          1.2118504595       -1.3864799090        2.5250009029
 H          0.0804675806       -1.7962259648        1.5215181655
 O          0.2157017361        3.5223046437       -1.3503786765
 H          0.2641783167        2.8818360363       -0.5961258453
 H          1.1366164783        3.7789201226       -1.4903331785
 O         -0.1412157782       -2.7392869439       -2.1972116419
 H          0.7954871868       -3.0053472758       -2.0442289096
 H         -0.1387460297       -2.2823470328       -3.0639529201
 O          4.9672846676        0.6032337053       -0.4843177871
 H          5.7055463612        0.9503939348        0.0636479477
 H          4.9333720216        1.1713081395       -1.2761082366
 O         -0.3675452962       -3.2776914694        0.7213788393
 H         -1.2883953857       -3.3625161518        1.0798439362
 H         -0.4185057074       -3.2372975381       -0.2381605953
 O          1.0644265923       -4.3577597142        2.7541741462
 H          0.6273408975       -4.0387893479        1.9396262334
 H          1.0226541686       -5.3135002455        2.7356258841
 O          5.6382717027        0.0783713350        3.0284131520
 H          4.8455706867        0.4679244753        3.4214953848
 H          5.3169166011       -0.6558953314        2.4790087894
 O          3.0661440150        1.6837753844        1.1130288897
 H          3.1047048771        1.3741162650        2.0369514389
 H          3.7066100625        1.1459146707        0.6042974322
 O         -0.9304264946       -0.6513112546        4.2187811959
 H         -1.7666343925       -0.1771039382        4.0784205841
 H         -0.5094128738       -0.7184379923        3.3310145467
 O          2.4265991314       -3.0240224686       -1.6195376615
 H          2.8258848363       -2.5058452968       -2.3612869063
 H          2.3208633981       -2.3381122599       -0.9132607425
 O          0.9505857813        1.0458347791       -4.3334083596
 H          0.6149594145        0.1430043888       -4.4670061627
 H          0.1634851981        1.6035040561       -4.1963290830
 O          2.1427125896        0.8276385016       -1.9571211568
 H          2.3918774591        1.7296431691       -1.6846733406
 H          1.6181122611        0.9274197966       -2.7799504710
 O          0.4717219982        1.7504008673        0.5747170787
 H          0.1673369660        0.9069590324        0.1948320228
 H          1.4341062098        1.6717027672        0.7620145737
 O         -4.1359001292       -1.2083026454        2.3177828178
 H         -5.0244897632       -0.9717049320        2.6778797351
 H         -3.5621332425       -0.4966425646        2.6530642133
 O         -2.9047314331        0.9991517483        3.3609370561
 H         -2.1996873309        1.6436870453        3.1490766358
 H         -3.7328652312        1.4566761625        3.1149302466
 O         -1.2226281968       -3.4227873824        4.1691274517
 H         -1.1519320058       -2.4731659551        4.3708518712
 H         -0.3404292978       -3.7100704181        3.8944214463
 O         -6.4428395825       -0.0868590161        2.9590411042
 H         -6.1174561436        0.8233700719        2.9553368299
 H         -6.9758794726       -0.1783149380        2.1528425466
 O         -2.9096903975        3.9937422676        1.5215300623
 H         -2.6076579097        4.5399757005        0.7823135824
 H         -2.1247213879        3.7171907956        2.0145081363
 O         -1.9450319129        5.0691427236       -0.8806722702
 H         -1.1299779110        4.5505609584       -1.0512822982
 H         -1.7620537025        5.9681218512       -1.1537398673
 O         -1.2090994648        2.3774265109       -3.3992835735
 H         -0.6599704509        2.7699148744       -2.6968811704
 H         -1.9878230229        2.9778096654       -3.4650268737
 O         -2.6858823113       -3.4427907025        1.9370148219
 H         -3.2412968675       -2.6487533140        2.0790722725
 H         -2.2752222851       -3.5978747751        2.8177861318
 O         -4.7126638913        1.6532837772       -2.1900351228
 H         -3.9015999755        1.6509168735       -1.5998608044
 H         -4.7883919759        0.7680375165       -2.5569931699
 O         -5.2111402539       -1.7431894673       -0.1197725710
 H         -4.7694051114       -1.4685989281        0.7083658893
 H         -5.0730605159       -2.7170562981       -0.1582530564
 O         -5.0141886268        2.3190638564        2.2875686186
 H         -5.5071520283        2.2043768885        1.4443447156
 H         -4.4418129613        3.0813157295        2.1195984870
 O         -7.5370399313       -0.5622675989        0.4199279727
 H         -8.2867102972       -1.1182657434        0.2098900474
 H         -6.7277204555       -1.0548809430        0.1513152139
 O         -2.6997717018       -3.6341624728       -2.4133987416
 H         -1.7763044089       -3.3363524990       -2.3036795869
 H         -2.7011248026       -4.2859563730       -3.1147673211
 O         -6.3496439343        1.9613272249       -0.0084230903
 H         -6.8880193225        1.1613780958        0.0423167914
 H         -5.8396652785        1.9082726648       -0.8384257885
 O          4.6842526261       -3.8485089694       -0.4490415745
 H          4.9503025488       -4.7396249825       -0.6715506693
 H          3.8211898646       -3.6815046741       -0.8990208830
 O         -4.3095305192       -1.2595047359       -2.6421644320
 H         -4.7185130749       -1.2987487213       -1.7558723361
 H         -3.8715876508       -2.1171817908       -2.7311789853
 O          6.8581572009        1.5012868335        1.1566428379
 H          6.4462790787        1.0735556828        1.9468929757
 H          7.7575747562        1.1754212998        1.1200681036
 O          2.9500096743        3.3266115281       -1.1394196039
 H          3.7719629521        3.1938446714       -1.6366223253
 H          3.1173537655        3.0456183646       -0.2272345382
 O         -0.3064201814       -1.4087785516       -4.5231378336
 H         -0.3270683758       -1.7841322992       -5.4030352984
 H         -1.1584852079       -0.8878651389       -4.4175725045
 O         -0.7926156112        2.6296032168        2.7796988208
 H         -0.3203476985        2.3138335624        1.9814236465
 H         -0.2159474758        2.4128200215        3.5276398488
 O         -2.4178315913        0.0405965957       -4.2397797817
 H         -3.1586207236       -0.2827720965       -3.7042745615
 H         -2.1171713000        0.8873069384       -3.8641124509
 O          3.5597703244       -1.2089101448       -3.1783212584
 H          3.1595631532       -0.4812442725       -2.6636489783
 H          4.4595292011       -1.3447403880       -2.7964215055
 O          2.2964145025       -0.9555095879       -0.0014448544
 H          2.2207028716       -0.2413441059       -0.6647490490
 H          1.5722905799       -0.8236645864        0.6418640371
 O          4.9407938791        2.2477127573       -2.6805190102
 H          5.7968819458        2.5168383677       -3.0125898995
 H          4.4616789633        1.8425419955       -3.4538633134
 O          5.7746057676       -1.6168556021       -1.7784167185
 H          5.5804443136       -2.4175924249       -1.2708617113
 H          5.5654103108       -0.8622696978       -1.1897788332
 O         -3.3537865165        3.9091977574       -3.0903840457
 H         -4.0204811133        3.2355017014       -2.8771803523
 H         -3.1096339437        4.3225926123       -2.2489757478
 O          2.5270176434       -2.0841435209        3.3159582191
 H          3.2793581114       -2.0929891131        2.6834337110
 H          2.1859114627       -2.9879337124        3.3478347094
 O          3.7225868386        1.0788933073       -4.7088370030
 H          3.7745631414        0.1438457945       -4.4430827205
 H          2.7735093340        1.2701505368       -4.7503341676
 O          2.9649584825        0.6714055378        3.6487414851
 H          2.2058902763        1.0750697262        4.1024132521
 H          2.7998728859       -0.2818079907        3.6762186037
 O         -0.7659225228       -0.3816552044       -0.5501725633
 H         -1.6078257944        0.0797856616       -0.6222840824
 H         -0.6984500884       -1.0433345995       -1.2486528390
 O          5.8683826328        3.7230779774       -0.3975820741
 H          6.2829640131        3.0504661555        0.1567328418
 H          5.4269789446        4.3345231324        0.1929088109
 O         -3.0186083847        1.4807662961        0.0330742606
 H         -2.9129023415        2.3499873988        0.4575767655
 H         -3.4986654061        0.9480941734        0.6747131173
