  222
       -371.48222040
 H         -0.3220403949       -0.6127057631       -1.8563999362
 C         -0.6940126318       -0.8735541429       -0.8666451615
 H         -0.9075112493        0.0434351898       -0.3194606874
 C          0.3643575533       -1.7027974468       -0.1365442479
 H          0.1167765628       -2.7574369813       -0.2356283826
 H          0.3970151632       -1.4473596948        0.9205883457
 O         -1.8958888155       -1.5861623289       -1.0712879083
 H         -2.2021971699       -1.9355902564       -0.1962873337
 N          1.6825057308       -1.4703346501       -0.7345934683
 H          1.6289486564       -1.6943643572       -1.7479742590
 H          2.3973855365       -2.0625225950       -0.2566526565
 H          1.9430059862       -0.4658193228       -0.6300652640
 O          2.7647558339        1.0191435015        2.6247703262
 H          2.8746278019        1.7227834069        3.2903244818
 H          2.3634166183        0.2682676484        3.1095315085
 O         -0.3649191648        2.1130169844       -2.1979102280
 H         -0.8232653492        2.0835838277       -3.0562768147
 H          0.4433426088        1.5807079418       -2.3158613212
 O         -0.9863728427        4.8821900521        1.3044022629
 H         -0.0425627724        4.8623134117        1.0429951874
 H         -1.2251810089        5.8051335496        1.3924708431
 O          1.7463567581       -0.7506139537        4.3216163133
 H          2.6197601351       -0.9069833422        4.7168640360
 H          1.3308052919        0.0022042283        4.8043407242
 O         -3.5602580268       -4.8775614285       -0.1751377492
 H         -3.2461230300       -4.6283581452       -1.0659444212
 H         -4.5041135562       -4.6515664502       -0.1542947723
 O          0.2650672521       -4.6278455372       -1.9752210269
 H          1.2353443106       -4.6093320844       -1.9294517027
 H         -0.0500736505       -4.8016066047       -1.0706824969
 O          1.4536247955        5.0390578173        0.1185573090
 H          2.1479959561        4.4083737924       -0.1620870654
 H          0.9212597260        5.1949528406       -0.6776335545
 O          1.8533169457        1.1065833186        0.1387321548
 H          0.9507718067        1.4463519219        0.3096038798
 H          2.2314869184        1.0251011802        1.0372845910
 O         -0.6746303995       -0.5296964591       -4.8857854582
 H          0.1450718622       -0.3637527006       -5.3646366059
 H         -0.4195504674       -1.1320653797       -4.1680377833
 O          8.0735492604       -0.2566233913       -1.6102308547
 H          7.7597587901        0.6634709955       -1.6042679936
 H          8.3909347716       -0.4524073649       -0.7140500640
 O         -2.4327045533       -3.8754983123       -2.4564142979
 H         -1.6087199135       -4.3493023712       -2.6136336288
 H         -2.1748278795       -3.0149485421       -2.0697040183
 O         -6.4263053765       -2.5134437374        2.3044711580
 H         -5.5816289976       -2.5123388273        2.7802842415
 H         -6.5203090618       -1.5878416299        2.0101356603
 O          4.6162984764        3.2312011409        1.8995284887
 H          3.9147352555        3.7818442053        2.2939099646
 H          4.9091135791        2.6167359687        2.5919964409
 O          6.1925301114       -2.0970696307       -1.6668197283
 H          6.9230124369       -1.4449589872       -1.7858292944
 H          6.4070500955       -2.5631573055       -0.8373149197
 O         -2.1745601890       -2.4595848653        5.2530259707
 H         -1.4018492846       -2.5807078143        4.6463900820
 H         -2.1900388379       -3.2087846087        5.8473904876
 O         -1.9006532116        0.2635872993        5.0727832986
 H         -2.0393647794       -0.6478073618        5.3731107202
 H         -2.7780434135        0.6236476525        4.8556766702
 O          0.5645105649        1.4170266978        5.3202281931
 H          0.4049290365        2.0628932480        4.5991838755
 H         -0.3132638940        1.0492590902        5.5038001109
 O          2.3988881913        4.6162796732        2.7494539200
 H          2.2300376607        5.0884519216        1.9256579321
 H          1.5672921662        4.1398812972        2.9441049073
 O          5.0464068849       -2.0463988992        2.5000400804
 H          4.2574113661       -2.4466336005        2.0700069880
 H          5.1139276632       -1.1557429323        2.0653957269
 O         -3.9332839489       -1.7645601018        3.2407353389
 H         -4.0293082109       -0.7955024037        3.3037435994
 H         -3.4403620635       -2.0489399825        4.0264155710
 O         -7.3536416286        0.5286738623       -3.3720444755
 H         -7.3289781615        1.4980562622       -3.3041953123
 H         -7.4359460219        0.2097833527       -2.4608285252
 O          4.4417425500       -2.3470081148       -3.6749245088
 H          5.1879294159       -2.4386185404       -3.0557713868
 H          4.4682324448       -1.4178433382       -3.9619922988
 O         -6.4349036394        2.2478099825        2.9250838889
 H         -5.9752194568        2.6814890287        2.1602441249
 H         -7.1071515308        2.8566916481        3.2282302333
 O          2.4107317350       -3.0132593388       -5.2815438075
 H          2.4367655772       -3.8235904706       -5.7899535656
 H          3.2446149877       -2.9520510699       -4.7782927793
 O         -1.3495562954       -0.2564070174        2.4424628426
 H         -2.2072973290       -0.2314441763        1.9602994808
 H         -1.5362175061        0.0179925183        3.3628635463
 O         -2.9108009205        0.5897280999       -2.5745383390
 H         -3.4640367807        0.3798819800       -3.3476208610
 H         -2.6552001367       -0.2526084938       -2.1793206842
 O         -5.7797023663        5.0017853533       -0.8971256784
 H         -6.3363201336        4.5128051422       -1.5261017439
 H         -4.8959276331        4.9868582504       -1.3014952749
 O          4.9826501591        0.2684839205        1.3116816069
 H          4.6548837318        0.0264148361        0.4052204136
 H          4.2256490413        0.6547321644        1.7942513662
 O          6.8422553541       -3.0919265872        0.7857780234
 H          7.6280241356       -2.5270180317        0.8479306292
 H          6.2448769523       -2.7658572726        1.4944924361
 O          3.3185141276        3.1642498573       -0.5174984844
 H          2.7229181274        2.3892087870       -0.3521854148
 H          3.8994018464        3.1974707821        0.2635989548
 O          1.2676357422       -4.3765615795        2.2482193739
 H          0.7556127692       -3.7462005778        2.7874288947
 H          0.6216147486       -4.7741038557        1.6453571426
 O         -1.3865169751        2.0203296496       -4.7276514945
 H         -1.2949589161        1.0385483749       -4.7597377607
 H         -0.9438760398        2.3644911509       -5.5033976093
 O          4.9086122517       -4.8500778950       -0.0974763854
 H          5.0083105513       -5.7217923075        0.2865055656
 H          5.7114406567       -4.3507185477        0.1300175263
 O         -0.3860121799        1.8867355669        1.2462641291
 H         -1.1557974059        2.2130749193        0.7354610313
 H         -0.6966013980        1.0734044354        1.7092866125
 O          2.9239504550       -3.8906541626       -1.9002192822
 H          3.3686231197       -3.3111626054       -2.5377004503
 H          3.6289421069       -4.3634507572       -1.4446817215
 O          7.3557256331        1.0363123338        2.1686576294
 H          7.1243239433        1.2485567216        3.0807990426
 H          6.4919915360        0.7806297696        1.7684825186
 O          8.6852154533       -0.9958145229        1.0226735874
 H          9.6012168398       -1.0116552693        1.3003667109
 H          8.2503975230       -0.2647028950        1.5142692713
 O         -2.5451763104       -2.8190538530        1.1742943852
 H         -3.1001628173       -3.5314802873        0.7857706603
 H         -3.0666499721       -2.4194050178        1.8987557724
 O          4.6192938490        1.8559781369       -2.4085652047
 H          5.5610834584        2.0364312780       -2.2068896421
 H          4.1240650561        2.4699571079       -1.8152189268
 O          0.1366317384        3.2527819072        3.3972424620
 H         -0.6617432938        3.7582874421        3.5615538786
 H         -0.0358988084        2.7649098775        2.5463953016
 O          0.7176778826       -2.2595340699       -3.2180112293
 H          1.2836117493       -2.5367120779       -3.9538434047
 H          0.3934949777       -3.0870744412       -2.8195538946
 O         -0.1774476067       -2.4337708979        3.5058208847
 H         -0.6542000386       -1.8038391396        2.9269290117
 H          0.5556872693       -1.9065948112        3.8817850439
 O         -4.7212112527       -1.3477695604       -0.9455428383
 H         -4.5554379407       -1.5991657725       -1.8730442676
 H         -5.1443286467       -2.1317789123       -0.5466728557
 O         -5.1404544371        3.1019335394        0.8036403624
 H         -5.1064342940        2.3970515178        0.1238215293
 H         -5.4245287398        3.9056273308        0.3032863269
 O         -5.9208030326       -3.5865311664       -0.0331785454
 H         -6.2117384822       -3.2976776747        0.8698122348
 H         -6.6964625018       -3.6713387227       -0.5927346905
 O          4.6897035355        0.2717994112       -4.5824681674
 H          4.6471440407        0.9119531941       -3.8448925119
 H          5.5316023269        0.4088546962       -5.0178147673
 O         -2.4123368893        2.2642278895       -0.4097150925
 H         -2.9413892625        2.9840312046       -0.8091425863
 H         -1.8601701951        1.9440040935       -1.1461227394
 O         -6.2016284254        0.0252157517        1.3905731545
 H         -5.2286256603        0.0969173710        1.2916301241
 H         -6.4616492087        0.7556805925        1.9743086610
 O          1.7835493247        0.5718621356       -2.7957843802
 H          1.7754735742        0.2474761195       -3.7143295024
 H          2.6068152733        1.0501156335       -2.6801845307
 O         -4.6081570388       -2.4402888573       -3.4169090284
 H         -3.9603940120       -3.1475698195       -3.2976352511
 H         -5.4890117225       -2.7859022795       -3.1875859781
 O          7.1454548435        2.3501831237       -1.6766463138
 H          7.7095554647        2.9334436934       -2.1848006359
 H          7.1078723450        2.7428202602       -0.7547969802
 O         -6.4829117499        3.0770582001       -2.7738211387
 H         -5.9653910919        2.4807458319       -2.1900013346
 H         -5.8832447240        3.3088906818       -3.4904782413
 O          2.0912628057       -0.2534518579       -5.4117849128
 H          3.0072810649        0.0562512728       -5.3727978550
 H          2.1504331927       -1.2139932854       -5.5283527129
 O          4.2001317160       -0.4540661481       -1.0467877791
 H          4.8873937320       -1.1076930119       -1.2993228462
 H          4.3630326317        0.3410136740       -1.5848842929
 O         -7.6212785847       -0.5523840052       -0.7955791612
 H         -7.0549711499       -0.3410885193       -0.0182794459
 H         -8.5272115537       -0.5096601264       -0.4887971557
 O         -3.9891764996        2.7932038920       -4.2789545021
 H         -3.0564607212        2.6143902057       -4.4883899377
 H         -4.4195946469        1.9360851911       -4.4125552128
 O         -7.1819140998       -2.7162970233       -2.4710604668
 H         -7.2500241496       -1.9396893803       -1.8842526646
 H         -7.7536360781       -2.5281987327       -3.2169854995
 O         -4.8872679647        0.1255866456       -4.3737565086
 H         -5.8122438137        0.2448718603       -4.0636559199
 H         -4.7471875909       -0.8303906897       -4.3773825357
 O         -3.5043489596        0.1441900450        0.9129094152
 H         -3.2204241620        0.9694066314        0.4707947685
 H         -3.7449728793       -0.4743398550        0.1959300425
 O          3.1148869327       -3.0339530733        0.9741063291
 H          3.6690328120       -3.6988212842        0.5330851580
 H          2.4252778951       -3.5437488251        1.4702897583
 O          4.4291564857       -0.9833504020        4.8247162081
 H          4.8901233080       -1.4206502216        5.5400522241
 H          4.6663731433       -1.4704405470        3.9922664705
 O          5.4063625148        1.5414710715        4.0891375821
 H          4.8460602897        2.1214618177        4.6187992931
 H          5.0918578380        0.6453839265        4.3012901302
 O         -2.8961885764        3.0375637450        2.3289210998
 H         -3.6776457685        3.1206208735        1.7503167219
 H         -2.2487437043        3.6499322161        1.9592491262
 O         -0.7452006638        4.6901473383       -1.5404497942
 H         -1.0969962469        4.6107769992       -0.6422124721
 H         -0.5069581196        3.7774406298       -1.8055069162
 O         -5.0771187834        1.3525471759       -1.2540551358
 H         -4.2121372477        1.2542717496       -1.7197468672
 H         -5.3628073166        0.4378345028       -1.1114870942
 O          3.0324720594        2.7363296380        4.7750620178
 H          2.2789555697        2.4366364261        5.2974402005
 H          2.8340819413        3.6236646740        4.4564224719
 O         -0.8307968156       -4.8617434647        0.5556523515
 H         -1.2989546543       -4.0736486884        0.8937014453
 H         -1.5305073698       -5.5102403737        0.4287574148
 O         -4.0706917529        0.9767219917        3.6720589242
 H         -4.9702011429        1.3325338463        3.6737300561
 H         -3.5582110196        1.6272456468        3.1571215588
 O         -3.4227231584        4.1667514659       -2.0060692486
 H         -3.6507367270        3.6880682089       -2.8291825173
 H         -2.5552256826        4.5765437607       -2.1483939201
 O          7.0939831055        3.3316377624        0.7221096769
 H          7.4141131233        2.5918084024        1.2702617796
 H          6.2041889424        3.5217564856        1.0632295601
