  191
       -320.31306199
 H          1.3856096210        0.0245148131        0.8593025737
 C          0.9581658336        0.7684954476        0.1848450536
 H          0.1890559149        1.3407170700        0.7089347651
 C          0.3356795464        0.0605731659       -1.0150319877
 H          1.0862903292       -0.5605742313       -1.5025502876
 H         -0.0228479224        0.8061617705       -1.7265700000
 N         -0.7909632361       -0.7788929793       -0.6286856562
 H         -0.4868702771       -1.4471474575        0.0686389730
 H         -1.4871322075       -0.1700270675       -0.1973190877
 O          1.9659399076        1.6587169850       -0.2651391477
 H          2.5620472369        1.8561888368        0.4948788559
 O          3.8710334912        1.2761248473       -4.5267667734
 H          3.9195065732        1.7181518903       -3.6508302321
 H          3.2845821161        0.5101603484       -4.3794760848
 O          2.4934475871       -1.3761631898        3.7452056867
 H          2.3237408990       -1.1879357144        2.8107240256
 H          1.6406955235       -1.3564385343        4.2219375541
 O         -3.8807414324       -4.1171887672        2.6989788556
 H         -4.2938064047       -4.0194190730        1.8171803934
 H         -2.9857435958       -4.4297659697        2.5248763771
 O          1.1129014222        1.6664099577        3.6938988635
 H          0.6837102096        1.5742965764        4.5768205433
 H          2.0588803982        1.5700417420        3.8454993824
 O         -3.8040050023        0.5597247723       -3.0949239902
 H         -3.1231267063       -0.1332898970       -3.1003307918
 H         -3.3449604378        1.4069858321       -3.2414796164
 O          0.6968610301        3.6962587496       -1.5537281515
 H          1.0917706659        2.9983041568       -0.9941484526
 H         -0.1622814978        3.9109248519       -1.1417926004
 O          3.2766743592        4.6723811551       -1.3067144543
 H          3.1628114054        4.7212550745       -0.3280492427
 H          2.3662242283        4.6223362223       -1.6330629683
 O          2.9472290932        4.6011343987        1.3518431276
 H          1.9917665031        4.4940536526        1.5082124754
 H          3.3063782150        3.7112027235        1.5304271597
 O          2.0783205907        2.9862310693       -5.5563350092
 H          2.7755633471        2.3482423705       -5.2746863139
 H          2.5122108172        3.8341796425       -5.6505611157
 O         -0.2652110823        0.1235165703       -4.5196336025
 H         -0.2101254202        1.0664299186       -4.2067524505
 H         -0.3775284239        0.1737686468       -5.4695070916
 O         -1.1827206721        0.6098979916        2.6404354006
 H         -0.3151084316        0.9474703281        2.9190473885
 H         -1.1176807431       -0.3608191384        2.6101513323
 O         -3.9835352563       -1.2953351363       -0.6816732691
 H         -3.2746603023       -1.3526882043       -1.3291223793
 H         -4.7924709585       -1.0503419952       -1.1956362906
 O         -4.6813893624        1.5477275593       -0.7056776661
 H         -4.6875199043        2.5223051867       -0.8394615141
 H         -4.5331428596        1.1539149800       -1.5879904512
 O         -4.5785749198        4.2192019179       -0.7416975568
 H         -5.0226475699        4.3030988275        0.1345641455
 H         -3.6265918061        4.3450950024       -0.6064374954
 O         -2.2830460023        4.2865634016        2.1699876102
 H         -2.8402358347        3.4943925476        2.3266017683
 H         -2.7338248004        5.0130273168        2.6002163986
 O         -1.1656983871       -4.3492322311        1.5339516495
 H         -0.4243515971       -4.9886212898        1.5936884540
 H         -1.6227348186       -4.5596141528        0.6951115684
 O          1.4189499296       -3.2936273788       -1.2385515173
 H          2.0192437778       -4.0234927233       -0.9651612281
 H          1.2733169313       -2.8011795453       -0.4034829488
 O         -0.8500189443       -3.9092109911       -2.5875302208
 H         -1.2892074553       -3.0610098975       -2.8009171921
 H         -0.0670913420       -3.6779196037       -2.0473197794
 O          3.8974433968        2.1999890243       -2.0209989973
 H          3.1339332723        1.7816843844       -1.5838316448
 H          3.7841310574        3.1602647459       -1.8222063932
 O         -4.6190965966       -3.7512173116        0.1186330817
 H         -4.3330566264       -2.8372773455       -0.1038665907
 H         -3.9590496693       -4.3260032760       -0.2972073952
 O          3.7766658452       -1.0513838943       -1.5660352251
 H          3.9710266986       -2.0035731492       -1.6619624235
 H          3.1136644938       -0.8483972915       -2.2465447629
 O          2.0478659813       -3.4049628197       -3.8494180419
 H          1.3023395315       -3.8733921946       -4.2293416190
 H          1.8428665756       -3.3287769630       -2.8930573836
 O          5.8487303819       -0.1267235081       -3.0921343543
 H          5.4149050779        0.3360352334       -3.8230633408
 H          5.1394991744       -0.3098268518       -2.4416377873
 O          0.9648914460       -2.5689712862        1.2853220263
 H          1.6452582924       -3.0384677830        1.8010028382
 H          0.1730136667       -3.1251403245        1.3722352190
 O          3.5379898520       -0.8397888899        1.1742793695
 H          4.3532483679       -0.4718514123        1.5547598637
 H          3.5999432979       -0.7132076526        0.2104749413
 O         -7.0773727337        1.7559415086        0.5242646257
 H         -6.1909648902        1.5761550187        0.1492368638
 H         -7.3480989516        0.9255417401        0.9383006747
 O         -5.6230804732        3.3079943604       -3.1305979258
 H         -5.4278618351        3.8575959914       -2.3576558471
 H         -4.7685698474        3.1286994131       -3.5348888566
 O         -7.1169472374       -2.6042012937       -0.4082662269
 H         -6.3580257673       -3.1824985148       -0.2314116616
 H         -6.8850766723       -2.0811869979       -1.1916784514
 O          2.7172408393       -3.9529388867        2.9758878579
 H          2.7520679447       -3.1384904665        3.5105806174
 H          3.5497726915       -3.9644147732        2.4813470803
 O          5.5153400093        0.9355995412       -0.3000226329
 H          6.3245114656        1.4330911002       -0.1475171435
 H          5.0463748187        1.3664062027       -1.0452014584
 O          2.1974335360       -0.7191081575       -3.7866440402
 H          2.2079591064       -1.6683820139       -4.0069353466
 H          1.3000915215       -0.4039620702       -4.0069451142
 O          6.9321450690       -2.4925901291       -2.8012466542
 H          7.7853116636       -2.5825192328       -3.2237094784
 H          6.5990029927       -1.5844354110       -3.0171514626
 O         -1.8154991604        3.9150136844       -0.5093100359
 H         -1.7707399277        4.3432282082        0.3584520100
 H         -1.9003869341        2.9531977936       -0.2746798515
 O          3.8397204922        2.0816209140        1.5588762187
 H          3.8603148205        1.6565922184        2.4404100122
 H          4.5324132240        1.6617151174        1.0135006844
 O         -1.8673173610       -1.4165224009       -2.9025969252
 H         -1.4169391292       -1.1946837706       -2.0237508840
 H         -1.3184943120       -0.9755968444       -3.5712651320
 O          5.6872001044        4.6085279501        0.5567260995
 H          4.9373621060        4.8621445052        1.1090996351
 H          5.3571775300        4.6540032487       -0.3459940312
 O         -2.2560717877        1.4546882100        0.2737423132
 H         -3.2148368767        1.3961539817        0.0558311920
 H         -2.1348229179        1.3202994947        1.2256960316
 O          3.9457587101        0.8623271788        3.9598448653
 H          3.4579000931        0.0120727254        3.9946316756
 H          4.8631859512        0.6049990160        3.8147095859
 O         -2.7952908454        0.8281882615        4.7548315079
 H         -2.1985729855        0.7558077899        3.9732458471
 H         -3.2617914031       -0.0149829004        4.7941839835
 O         -3.8603031053       -1.6704444641        3.8153286852
 H         -4.0842152728       -2.5934160536        3.5822754862
 H         -4.1816369443       -1.1235659282        3.0647127588
 O         -5.7944882398        3.9721869942        1.6095797112
 H         -5.1882653617        3.4199323375        2.1308813721
 H         -6.4822123377        3.3585116314        1.3022169832
 O         -1.3993856993       -2.0299107870        3.0402090786
 H         -2.3253718476       -1.9050583673        3.3815358826
 H         -1.3950834867       -2.8698559140        2.5587454227
 O         -3.9686602638        2.2416361284        2.7328687816
 H         -4.2222803815        1.4216097513        2.2619049017
 H         -3.7031384285        1.9423508921        3.6201196479
 O         -0.2434913620        1.0094423330        5.8854707193
 H         -0.0638137261        0.0611376808        5.7929721998
 H         -1.1935772417        1.1105493697        5.7123615487
 O          6.0235068983       -0.0366640560        2.3071313617
 H          6.4615569605       -0.7213054034        1.7904815958
 H          6.4102007771        0.8061568735        2.0194037231
 O         -2.6266192570        3.0067921308       -3.2167399377
 H         -2.4932337632        3.4399053665       -2.3648796557
 H         -1.7444256137        2.9561164401       -3.6189468768
 O          7.0723525948        2.4381108673        1.3786812722
 H          6.5321851832        3.2202219058        1.1291838841
 H          7.8460853019        2.7850939315        1.8217798166
 O          3.2064446074       -5.0572411882       -0.3703523633
 H          3.7394109135       -5.0573725731       -1.1737945043
 H          3.7047530999       -4.4519553013        0.2290943074
 O          6.4797072825       -1.6968741249       -0.0908713039
 H          6.7404679235       -2.0638372544       -0.9463466734
 H          6.0567428787       -0.8432000158       -0.2936912700
 O          4.4623231477       -3.6017459662       -2.3651692520
 H          5.3760240713       -3.3687588483       -2.5928205712
 H          3.9465205230       -3.6169764506       -3.1796080346
 O         -6.0732984228       -0.8041982610       -2.2506987437
 H         -6.6612479430       -0.0021486900       -2.1835950959
 H         -5.5351732506       -0.6247464207       -3.0285992676
 O         -4.6101777359       -0.1852417191        1.7138063117
 H         -4.2720488192       -0.4992882911        0.8557266130
 H         -5.5733383228       -0.3509286284        1.6844007050
 O          0.0072852578        2.6372998300       -3.8763072614
 H          0.3183584598        3.0217751545       -3.0197331569
 H          0.6967970265        2.8608080852       -4.5335219260
 O         -7.2147246521       -0.8391904659        1.5292188109
 H         -7.2305286069       -1.4987763590        0.7815823944
 H         -7.7248889892       -1.2270729548        2.2394362370
 O         -7.4426890552        1.4285338775       -2.2114156255
 H         -7.5521969205        1.7039736703       -1.2865526021
 H         -6.8717498789        2.0990381502       -2.6297168052
 O         -2.3557954785       -5.0640864806       -0.7994757044
 H         -1.8204500819       -4.6333417841       -1.5247671183
 H         -2.3326173727       -6.0053948557       -0.9710090230
 O          4.5591165096       -3.2782687052        1.0870502983
 H          5.3954348092       -2.9909379048        0.6843969625
 H          4.0462963910       -2.4355942011        1.1455138157
 O          1.1460165040       -5.7239450495        1.5253292733
 H          1.7389694886       -5.7228107927        0.7624714264
 H          1.6554579251       -5.2998012585        2.2317150619
 O          0.1727751443       -1.6430267151        5.0968683750
 H         -0.4339175273       -1.8230871202        4.3335552176
 H          0.1543426838       -2.4186406407        5.6567498661
 O          0.4524363068        3.6338737649        1.8540132733
 H          0.7065492246        2.9902175043        2.5358670909
 H         -0.4415190151        3.9206667119        2.0786876379
