  135
       -229.09910871
 O         -2.6165265708       -4.9931048957       -1.5359077033
 H         -2.1862352108       -4.2282357656       -2.0048789209
 H         -3.0733064278       -5.4938730671       -2.2107035776
 O         -0.3127809414       -0.8359302397       -1.7091782904
 H          0.5114853802       -0.8714822456       -1.1936755974
 H         -0.9167350173       -0.2498078042       -1.2095103645
 O         -0.2488718414       -3.3313012298       -0.2898720956
 H         -0.4269081489       -4.2749516463       -0.1182112045
 H          0.3186442221       -3.2855134415       -1.0803349163
 O          3.0491583243        2.5962469159        1.4054403499
 H          3.6679021650        1.8496719407        1.4441168639
 H          2.2618662168        2.2444832576        0.9252819185
 O          1.4782298271        4.5724116052       -3.1056903357
 H          1.3781642900        3.6457588191       -2.7854773411
 H          1.1622403330        5.1217039389       -2.3798621911
 O         -3.6264541504       -1.2913252909       -2.0780667071
 H         -3.0812148877       -1.2556834591       -1.2601167436
 H         -3.5386395894       -0.4178691363       -2.4971216660
 O          2.4701822593        0.0240419543        2.2702393626
 H          2.8470453609       -0.7823797068        2.6615738123
 H          1.9086463775        0.4093168015        2.9619708260
 O          0.7294554450       -2.5982341835        2.0355638642
 H          0.3503451458       -2.8726047971        1.1646986689
 H          0.0111824523       -2.6632806435        2.6898090746
 O          2.9760833412        0.3031015741       -2.3967251842
 H          3.7868334136        0.7895091307       -2.1739588061
 H          2.6912499917       -0.1524442177       -1.5680761092
 O         -0.3602332278       -0.1946347643        1.3998969142
 H          0.1286341048        0.5246571531        0.9412735174
 H          0.2780552257       -0.9058084640        1.6001944877
 O          1.2348384009       -3.4311535429       -2.5870686886
 H          1.3814070508       -2.6213869235       -3.1306940616
 H          0.6549841349       -3.9834591049       -3.1142690981
 O          0.7630446992        1.9113607050        0.2741766030
 H          0.2201033222        2.6400488146        0.6284453619
 H          0.7928144900        2.0067972155       -0.7046118696
 O         -0.9188438368        3.7574207286       -4.2409011945
 H         -0.7487502392        2.8505016862       -4.5148658552
 H         -0.0486041540        4.1747304485       -4.1017727308
 O         -3.5130385194        4.0122507087       -0.0380428347
 H         -3.6038847772        4.9572274818        0.0781278576
 H         -2.7523183207        3.8775200941       -0.6587931030
 O         -5.7158064725       -1.9903649652       -0.5664826897
 H         -6.4687905394       -2.2938610498       -1.0717012767
 H         -5.0223953631       -1.7248833562       -1.2155135987
 O         -1.4956393761        0.4981811203        3.6332906560
 H         -2.2021850644        1.1121668981        3.4129684734
 H         -1.1106392995        0.2383689361        2.7541452654
 O         -0.9594586775       -2.2085227697        4.1776796561
 H         -0.1691737362       -2.1053609689        4.7289245312
 H         -1.3246286722       -1.3159050939        4.0769137117
 O         -1.8835069725       -4.0735333096        2.1978159302
 H         -1.8949644704       -3.5772419230        3.0213047021
 H         -2.7521114663       -3.9495753664        1.7696463828
 O          1.0122454795        0.9862668410        4.4329612674
 H          0.0562966179        0.8930618432        4.2376299885
 H          1.2346570922        1.9174159283        4.2761397418
 O          3.0600029982       -2.4029608582        3.3523112895
 H          2.2780327026       -2.6436623296        2.8182295404
 H          2.7085571892       -2.2535798470        4.2402508076
 O          1.5861823463       -1.2795533593       -4.1348982554
 H          2.1934136491       -0.7133986744       -3.6289866205
 H          0.8144992799       -0.7401522896       -4.3308555842
 O         -4.4512699669       -0.0385101760        0.9168582180
 H         -5.2134665774       -0.5963363239        0.7191373044
 H         -3.6868268020       -0.6237627497        0.7557010845
 O          2.9779615245        5.0759930322        0.2493377333
 H          3.4818987912        5.0091409604       -0.5880430280
 H          3.1261005875        4.2271897695        0.6990646399
 O          2.0056818941       -0.8696893762       -0.2387298198
 H          2.3330273877       -1.7916620342       -0.2130103500
 H          2.2051974160       -0.4718904144        0.6314381610
 O         -4.8307688411        1.8162724254       -1.1153885480
 H         -4.6710778129        1.1339248107       -0.4351321487
 H         -4.5176760789        2.6507218620       -0.7386014968
 O         -1.4588164363        3.5439972060       -1.6283120067
 H         -1.4148166996        3.6516635306       -2.6031281910
 H         -0.7136823330        4.0616248986       -1.2635394052
 O         -2.3305671188       -1.6109006368        0.2714000778
 H         -1.8564198476       -2.4412760161        0.1066320454
 H         -1.6447518606       -1.0215435457        0.6424137626
 O          4.7539813766       -1.9397782808        1.1571521753
 H          4.2912810065       -2.4698393415        0.4900233172
 H          4.3692753279       -2.2070581853        2.0033885448
 O         -2.9726820993        2.0871116691        1.8362365256
 H         -3.2687211537        2.8306882954        1.2808671257
 H         -3.6161653888        1.3761082818        1.6841731503
 O         -4.1115311656       -4.0088028020        0.6373571632
 H         -3.6473076586       -4.3442454934       -0.1458825847
 H         -4.6578679556       -3.2691959281        0.3337926892
 O         -3.4426205113        1.1929377198       -3.2551040396
 H         -3.9814458672        1.4829534978       -3.9900887338
 H         -3.9031517442        1.5064487253       -2.4313487436
 O         -0.7633469471        0.7554070717       -3.7749976442
 H         -1.7004133040        0.9805489189       -3.6496922259
 H         -0.6063779454        0.0456229953       -3.1113844165
 O          1.4527183761       -1.4745462213        5.4666867948
 H          1.5368453144       -1.4130029577        6.4179244981
 H          1.3754381824       -0.5589130708        5.1328618796
 O          2.9594566245       -3.3781975368       -0.3990745184
 H          2.5976317682       -4.0753860994        0.1894670610
 H          2.5912100523       -3.5512003208       -1.2764188944
 O          4.1020964383        4.4548510827       -2.1204639410
 H          3.2994777412        4.5034544914       -2.6669826999
 H          4.3080989763        3.5187687447       -1.9902119899
 O          5.0498222282        0.6859845480        0.9934265525
 H          5.8166491712        0.7938276798        1.5559342103
 H          4.8476810261       -0.2840671849        1.0031342114
 O         -0.5987001888        3.6758113512        1.8145875321
 H          0.0790195052        3.6058975173        2.5118153828
 H         -1.3497708069        3.1278607368        2.0706264106
 O          5.0226867104        1.8094056483       -1.4635148192
 H          5.9369638289        1.8023802891       -1.7471553656
 H          5.0060703303        1.4681911289       -0.5433957030
 O         -1.9310516107        1.0487854505       -0.6727162044
 H         -1.7376544599        1.8859415202       -1.1280141302
 H         -2.1039888683        1.2792161297        0.2476012372
 O         -1.6680308361       -2.9399333282       -2.8985918630
 H         -1.0269952735       -2.3589595290       -2.4476263257
 H         -2.4944029638       -2.4250109087       -2.8580482773
 O          1.6073523342        3.4540430222        3.4292971391
 H          1.9742796588        4.2997183295        3.6870559119
 H          2.2045314975        3.1079393520        2.7101189437
 O          1.0475585424        2.0821939061       -2.3377059314
 H          1.8103272504        1.4629278095       -2.4278087849
 H          0.3269386497        1.6880232895       -2.8762510276
 O         -0.8705983320       -5.8557488169        0.4494653692
 H         -1.2709414895       -5.4356032601        1.2331805715
 H         -1.5671300473       -5.8532613106       -0.2241101875
 O          1.7512945172       -5.1604672497        1.2361179110
 H          0.9891118489       -5.6536317617        0.9031318838
 H          1.3922191118       -4.5153842123        1.8592899255
 O          0.4193238653        5.0443440634       -0.4114865062
 H          1.3836007045        5.1027173365       -0.1885991845
 H         -0.0119608423        4.8928754252        0.4378543006
