  144
       -244.35135055
 O         -2.4715783244        2.5016627927        0.5373043044
 H         -3.0650484714        2.5439982836        1.3239299444
 H         -2.0641955012        1.6015987932        0.6392025812
 O          6.1806059985       -0.8418606380       -2.3385555523
 H          6.9481143915       -1.4096112115       -2.3960908592
 H          5.6257153034       -1.1828633897       -1.5965864506
 O         -1.2203702045        4.8958039001        0.7811274088
 H         -1.5612989029        3.9807413740        0.6665105131
 H         -1.9732536489        5.4259873377        1.0424375833
 O          2.4084012167        0.3918781189        2.2686421194
 H          2.6872466795        1.0701816988        1.6114135943
 H          1.8522933728       -0.2525819799        1.7832396944
 O          0.4523834054        1.0678245379       -2.5417845347
 H          0.0894376916        0.2235929917       -2.8888910335
 H          1.0543141403        1.4342893925       -3.2397524998
 O         -3.2085265770       -5.8174360189       -0.0971698148
 H         -2.3027408375       -5.6241775778        0.1775355037
 H         -3.3039068469       -5.3774140204       -0.9741904219
 O         -3.2560876878       -4.3137572156       -2.3054592903
 H         -3.7814912198       -3.5199271707       -2.0975560748
 H         -2.3309720093       -4.0263902140       -2.3264296206
 O         -7.1634371185        0.5845626235        0.3351755643
 H         -8.0840584547        0.8396555941        0.3869049172
 H         -7.0833340429       -0.0088941712       -0.4737095765
 O          3.7614685538       -0.3602739509       -3.6358609011
 H          3.4483689835       -0.1114258188       -2.7426335735
 H          4.7031642318       -0.5413240320       -3.5207962025
 O         -0.7673033788       -4.5995386935        0.6469829470
 H          0.1756629554       -4.5432730342        0.8945989614
 H         -1.2590478155       -4.1809844134        1.3781880788
 O          4.7261352233       -0.9666104608        2.1771115346
 H          3.9109291795       -0.4349886981        2.3116865371
 H          4.5246211305       -1.8217904558        2.5870041293
 O          4.4928845493       -1.6042479839       -0.4272472598
 H          4.6844177736       -1.4023484518        0.5132816383
 H          3.7620823926       -1.0099239113       -0.6785895651
 O          1.7623392095       -3.8002700386        1.1389875991
 H          1.3642710803       -2.9054010020        1.1360914004
 H          2.2033180838       -3.8810800379        0.2574599354
 O         -4.0396846434        2.0828688889        2.6283870572
 H         -3.3447578668        1.8101808559        3.2626918178
 H         -4.5867684666        1.2931893479        2.5082998230
 O          1.2872061219        4.9865744158       -0.4638308304
 H          1.4162147628        5.0792555191       -1.4285573012
 H          0.3969800070        5.2868587179       -0.2426507106
 O          0.6251852963        4.5664099109        2.8797422326
 H          0.4278552364        3.6175223601        2.9941907707
 H          0.0256097363        4.8491896684        2.1700801729
 O          5.8533651861        1.4502497198        1.2074297504
 H          5.8533213258        2.1384236093        1.8977662591
 H          5.7196186333        0.6012669391        1.6513608233
 O          2.3567607896        1.9765778158       -4.0973631880
 H          2.9271937948        2.3934618063       -3.4164688424
 H          2.8310883723        1.1672316408       -4.3387167729
 O          2.9235322847       -3.7161786604       -1.2210739033
 H          2.5388914317       -3.3449265707       -2.0370780923
 H          3.6368880286       -3.1018407183       -0.9806268588
 O         -0.5818856949       -3.5623444452       -1.8424245439
 H          0.1904500224       -3.9838395086       -2.2271383825
 H         -0.6666189079       -3.9227086769       -0.9326838634
 O          0.5788526924        2.4061517283       -0.0799706879
 H          0.4828545771        2.0840130221       -0.9835921405
 H          0.8852904358        3.3309196516       -0.1506235846
 O          1.7072846392       -1.5111464570        4.3511138174
 H          2.3074421257       -2.1872406035        3.9913991682
 H          2.0301669294       -0.6719884691        4.0054289876
 O         -5.5405039679        1.1390950195       -3.2343129496
 H         -5.1661257585        1.2342117022       -2.3285440695
 H         -5.5670715665        2.0185948247       -3.6103024911
 O          2.9471465726        4.5072839371        1.6442652545
 H          2.1496811402        4.5361253424        2.2357027313
 H          2.6344745102        4.9427300032        0.8361880387
 O         -0.8171457416       -1.3881829531        3.4709759450
 H          0.0190413036       -1.5112768840        3.9695006821
 H         -1.2695319439       -2.2441107187        3.4217516156
 O         -2.0444479478        2.1968261285       -2.2608527990
 H         -2.1287453949        2.4337357296       -1.3279096907
 H         -1.1216548458        1.9206895411       -2.3952816887
 O          3.4589032574       -3.2571569675        3.0857957267
 H          3.7628599387       -4.0679284390        3.4925632178
 H          2.8638429488       -3.5245182267        2.3366971054
 O         -3.0922611885       -0.1592079685       -2.9734686862
 H         -2.7701818261        0.7163103208       -2.6506282547
 H         -3.8899959373        0.0503460956       -3.4758169776
 O          1.9909015398       -2.4596104066       -3.4574571336
 H          1.1427436794       -2.0530310795       -3.6651467283
 H          2.6657470149       -1.7873462784       -3.6624586965
 O          3.8260987284        3.0667760273       -2.0966660304
 H          4.7423329796        2.7165602263       -2.0705117697
 H          3.4835107825        2.9012191277       -1.2037885420
 O          5.2694264696        3.5512534306        2.8309159370
 H          4.4562348436        3.9523897871        2.4771847257
 H          5.8120627442        4.2748712015        3.1434705050
 O         -6.9024995509       -0.8590626744       -1.8055716626
 H         -6.0892531504       -1.3972709205       -1.6895053000
 H         -6.6662531019       -0.2200192818       -2.4933485537
 O         -4.2076456133       -2.2666057481        1.2315150877
 H         -4.7617454485       -1.6238191162        1.7064860863
 H         -4.6821829253       -3.1336773753        1.2390831513
 O          0.1439335546        1.9316383657        2.5502874745
 H          0.9449732512        1.4077130455        2.7105119824
 H          0.1309216599        2.0896203543        1.5873869029
 O          2.6600183893        0.2175209621       -1.2195263835
 H          2.8804799688        0.9676335912       -0.6442721410
 H          1.7996215933        0.4421446201       -1.6244366586
 O         -1.9759573172        1.1098481079        4.0700605142
 H         -1.2372127514        1.5416953404        3.6077665889
 H         -1.7313783157        0.1752339014        4.0917227351
 O         -4.6187001383        1.2263680259       -0.7188713611
 H         -3.9281799827        1.7892271099       -0.3328821427
 H         -5.3960594197        1.2753075952       -0.1524298539
 O         -2.3219757631       -3.5305360194        2.6410450690
 H         -2.8320601676       -4.2774332575        2.9602225058
 H         -2.9599311196       -2.9821413067        2.1246302048
 O          6.1522363401        1.8401786531       -1.5993188437
 H          6.2160166699        1.7421081598       -0.6396290172
 H          6.2232322769        0.9434700105       -1.9636811662
 O         -0.6331467472       -1.2459135865       -3.3443328430
 H         -0.6856353972       -2.0260483670       -2.7664502538
 H         -1.5520184012       -0.9371410025       -3.4385298961
 O          3.3779274578        2.1646614209        0.5168758038
 H          4.3237693161        1.9626994900        0.6963075052
 H          3.1809030311        3.0261054955        0.9619415630
 O         -5.1225826432       -4.7260421976        1.3173031619
 H         -4.3858444074       -5.1893840632        0.8286004339
 H         -5.9194412280       -4.9534681042        0.8374778837
 O         -4.4771194597       -1.9891816019       -1.4791962919
 H         -4.2833239320       -1.9825331290       -0.5244671740
 H         -3.9413024551       -1.2863252875       -1.8946427149
 O         -5.6614048574       -0.2441522261        2.3574750567
 H         -6.2507642497        0.0410477176        1.6207924960
 H         -6.2039603436       -0.3037479786        3.1442791152
 O          1.9632542499        4.8627900814       -3.0653878085
 H          1.5790607795        4.2686228473       -3.7153211103
 H          2.8056501801        4.4522705492       -2.8104508524
 O         -1.6093532652       -0.2899741584        1.0235115148
 H         -1.3703522530       -0.5118282686        1.9448928889
 H         -2.3518684506       -0.8613533118        0.8054436173
 O          0.9787580290       -1.1920511367        0.6410418673
 H          1.4097031971       -0.8942257909       -0.1714800051
 H          0.0607932082       -0.8622565870        0.6276760122
 O         -0.5383734502        3.8050964640       -4.1560764658
 H         -0.7716454211        4.7252391677       -4.2790719457
 H         -1.2596454547        3.3873553768       -3.6700292877
