  461
       -778.76384191
 H          0.2452024429        1.7721330104       -2.0149506394
 C          0.3946171929        0.7112748378       -1.8186464351
 H         -0.3168133164        0.1405261957       -2.4195429217
 C          0.1570779416        0.4257400906       -0.3380901694
 H          0.9754772394        0.8453637698        0.2429296223
 H          0.1278418282       -0.6534304448       -0.1844180320
 N         -1.0921336321        0.9967562659        0.1494578925
 H         -0.9513294003        1.9895393791        0.3083781654
 H         -1.7864480784        0.9173927154       -0.5830598357
 O          1.7186540338        0.3916740778       -2.2160114736
 H          2.0657710907       -0.3258351326       -1.6444929634
 O         -0.2266815409        0.7804116850       -5.1664460175
 H         -0.8080880102        1.4892996132       -4.8279355024
 H          0.6904588939        1.1176253432       -5.0757393107
 O         -3.6138417223       -3.7262394001       -1.8461869145
 H         -3.5002296504       -2.9124188862       -1.3152200313
 H         -3.0800609584       -3.6026645730       -2.6568059775
 O          3.0933736647       -1.4815115277       -0.8832123425
 H          3.1819462720       -1.6996671811        0.0613931774
 H          3.8082315741       -0.8346056731       -1.0283267989
 O         -5.7485267486        3.2883907568        0.1561972328
 H         -6.1449923584        4.0159491882        0.6809931712
 H         -6.0071804012        3.4674358954       -0.7663994316
 O          2.9473639990       -0.3843860466       -6.6471087715
 H          2.8552079616        0.5094963088       -6.2743554269
 H          3.8789354625       -0.6445722823       -6.5518525637
 O          2.2771790585       -1.3632800210       -4.2031828275
 H          2.4327531030       -1.0922814989       -5.1272899150
 H          2.0741620563       -0.5601771060       -3.6950374625
 O          4.3777896903       -4.2143165688        4.3610639606
 H          4.2540207827       -5.0932637120        4.7194006265
 H          3.4972615772       -3.9660798410        3.9652562878
 O          1.8337541201       -3.3049376236       -2.4311016512
 H          2.3389598400       -2.7791837390       -1.7852477499
 H          1.7694524203       -2.7274350741       -3.2103861632
 O         -5.8468053908       -2.1992113816       -0.1862091469
 H         -5.3867979914       -1.8055114200       -0.9566772627
 H         -5.3882462168       -1.8476440719        0.5953904183
 O          1.9552129194        3.7666267110        2.8887858236
 H          2.2076683640        3.9701951846        3.8116775880
 H          1.6297894641        4.6084099916        2.5002448964
 O          4.1349322283        4.9200673745       -3.4837688409
 H          3.9098466269        5.4619899430       -2.7130040171
 H          3.8222321034        4.0319967400       -3.2270623502
 O          3.0614354079        0.8856758356        1.7067994541
 H          2.4785516655        0.1443024971        1.9359729224
 H          3.7402751040        0.8755965730        2.3887947001
 O         -1.3028447195        3.3295738501       -1.7722675122
 H         -1.6905303877        3.1284241135       -2.6389101147
 H         -1.9951016207        3.6783989229       -1.1945330276
 O         -2.4179519650        6.2012704516        3.3907165651
 H         -1.8873044634        5.3682245063        3.4204773827
 H         -1.8833641476        6.8790410106        3.8023219652
 O          2.8325473894       -4.2234350042        0.3866274518
 H          3.6085546852       -4.0293859008       -0.1722715512
 H          2.3947313734       -5.0065877663       -0.0106540998
 O         -3.9540046517        2.4552974630       -2.1821231795
 H         -3.9171840377        2.0397783263       -1.2973102754
 H         -4.8143418019        2.2158186412       -2.5523484889
 O         -6.1026661110        1.4141969802        2.0899226877
 H         -6.0667148181        2.0117803683        1.3221287199
 H         -6.3168169212        1.9648125030        2.8689154140
 O         -1.7695140177       -7.0081040531       -0.5949216537
 H         -1.4140673631       -6.6669350049       -1.4338933087
 H         -2.7296507573       -6.8775816105       -0.6119360462
 O          0.7347298881       -2.6988726825        0.4052917169
 H          1.5750645903       -3.2068549026        0.3086667343
 H          0.0689122072       -3.3673529903        0.6320495133
 O         -1.2653337162       -4.5210899114        0.3011033402
 H         -1.4886133502       -4.0447172428       -0.5105266311
 H         -1.3983307610       -5.4684098005        0.1031556974
 O          6.2054544457       -0.7890940073        2.4113046486
 H          5.3053832240       -1.0395704646        2.1014269385
 H          6.3635476654       -1.3471148817        3.1935875266
 O        -10.0225061481        0.3489023816       -3.3090025141
 H        -10.3113496968       -0.5820139110       -3.3334905722
 H        -10.1875687244        0.5980060546       -2.3829757413
 O          7.8979617320        3.9951158531        0.9222894539
 H          8.4437986465        3.6297244093        0.1977148311
 H          7.3567513049        4.7070052213        0.5138748920
 O         -6.2643287130        1.4768401827       -3.2991605310
 H         -6.6540249959        0.6778543983       -3.7278145758
 H         -6.9995908034        2.1232744374       -3.2640951790
 O         -3.6458679043        5.1316220815       -2.4910257581
 H         -4.1934436896        5.5883572848       -1.8442399911
 H         -3.7423758417        4.1722794996       -2.3135677004
 O         -3.1626630122        3.9303981949        0.2108138808
 H         -2.7035843558        3.3822348314        0.8547679599
 H         -4.1058868982        3.6572231952        0.2011489269
 O         -0.4096488204        3.8114527149        0.8519375252
 H         -0.4741872035        4.6749993065        0.4012026218
 H         -0.5490000654        3.9646786373        1.7971039634
 O          4.8872165761        3.5239730571       -0.7622445909
 H          4.1075571823        3.2285469833       -1.2932635926
 H          4.6437225841        3.3821347849        0.1700365860
 O         -4.7198156010       -0.9504591506        2.0265762764
 H         -3.7478069678       -0.8288491411        2.1254554460
 H         -5.1188131717       -0.0700885433        2.1030140329
 O         10.4234628689       -2.9744391830        0.8885984329
 H          9.6274014655       -3.5204591781        0.7756120443
 H         10.2343634966       -2.3672222945        1.6140350636
 O          2.7492304085        4.1949583577        5.4127473479
 H          1.8490031984        4.0381827486        5.7387273740
 H          3.2333335379        3.3642277546        5.5724086063
 O          5.9475872106       -0.1656380613        5.8351379895
 H          6.6314029881        0.3218599505        5.3498808241
 H          6.2114423509       -1.0909218195        5.7467057867
 O          4.7269829725       -2.1162790876       -3.3691411501
 H          3.8246581901       -1.7581250732       -3.5194455165
 H          5.2523206653       -1.4229321067       -2.9218995921
 O          4.9638299658       -3.6002087660       -1.1506502755
 H          4.8205469201       -3.1846524995       -2.0286134708
 H          5.5095202846       -2.9619684909       -0.6499979155
 O          2.1117802229       -3.9268368611        3.0771467776
 H          2.3834282350       -3.7844068900        2.1562648845
 H          2.0402340799       -4.9094332457        3.1331301688
 O          1.3291709032        0.7332893253        5.1040648525
 H          2.2580568555        0.9884328441        5.2561821955
 H          1.1594227528        0.8753315948        4.1467646074
 O          6.6745124298        2.1717783911       -2.1047356434
 H          6.0223009697        2.6085054968       -1.5058774609
 H          6.6364960195        2.6932430109       -2.9368945277
 O          1.1385578788       -1.0536065776        2.4163712734
 H          1.0342812968       -1.5990977242        1.6049711317
 H          0.6436248919       -0.2289599726        2.2969640468
 O         -7.6770174868       -2.3443440277       -2.3888878308
 H         -7.0549995151       -2.9971624139       -2.7744273344
 H         -7.2997235190       -2.0973376415       -1.5321598123
 O         -2.9647954335       -1.5654153196       -0.3754331202
 H         -2.1253640101       -1.5758514712       -0.8596796714
 H         -3.2464201435       -0.6393078370       -0.2701709816
 O          1.6641968972       -1.9969103266        5.3284733512
 H          1.4999062079       -2.4998727837        4.5213079775
 H          1.4055835437       -1.0715702099        5.1556043618
 O          0.4700924571        1.5152325090        2.7060738545
 H          0.9465235259        2.3670204483        2.6736917318
 H         -0.3826897662        1.6575251742        3.1351113005
 O         -4.9831029070       -1.0238782756       -2.4128466558
 H         -5.1040577132       -1.4108795849       -3.2914787787
 H         -4.0895149444       -0.6196784156       -2.4287127918
 O         -2.6269791867        0.1387217549       -2.8170749252
 H         -2.5950442613       -0.0250557219       -3.7710656067
 H         -2.8763175257        1.0729029854       -2.7167566035
 O          2.2861363459        1.7203520399       -5.0749847741
 H          2.9264190221        1.4608130605       -4.3797960302
 H          2.1769781977        2.6871207620       -5.0284062030
 O         -0.7686609638       -2.4776447298        3.5867313526
 H         -1.5672270209       -2.3890595888        3.0212439504
 H         -0.0536037413       -1.9613428813        3.1493159176
 O         -2.1222261507       -0.3569632883        2.2258295896
 H         -1.7369759381        0.1519364994        1.4662138574
 H         -2.0137773433        0.1951587027        3.0077411780
 O          1.4558563981       -6.2295162766       -0.6816182921
 H          0.8095900422       -5.9274249456       -1.3493966068
 H          0.9460853873       -6.5432296212        0.0873724624
 O         -2.7489344581       -3.2272677903       -4.3304484545
 H         -3.4930875185       -2.8059803490       -4.7673304542
 H         -2.0136992249       -2.5744486761       -4.3277936525
 O          2.9727722215        5.6844458081       -0.9658320162
 H          2.7416206293        4.8266823525       -0.5623844883
 H          3.3915656660        6.1967515971       -0.2699648672
 O         -6.5777404268        0.6285890745       -0.6716240252
 H         -7.0691706713       -0.1930117725       -0.5167447487
 H         -6.3370391914        0.6552901910       -1.6158589010
 O         -4.6079810688        4.5437820987        3.2071086910
 H         -3.9503424469        5.2505136409        3.2769717718
 H         -4.6926119933        4.1559999347        4.1027043097
 O          4.4585476679        0.7417202742       -0.6438348276
 H          5.3002217549        1.0000654471       -0.2282636829
 H          3.8199841463        0.8332691264        0.0833334187
 O         -8.9709953995       -3.5753749647        2.5656609776
 H         -9.0263812474       -3.8563666352        1.6400511352
 H         -8.0354841514       -3.3972913414        2.7454422900
 O          8.1718930545        5.1225760823       -2.4092133990
 H          8.7264877397        4.4616671826       -1.9853674256
 H          7.5806949564        5.4849579213       -1.7335855105
 O         -0.7120881733       -5.1339899277        3.4590357640
 H         -0.0817932242       -5.4653556689        4.0999031620
 H         -0.6028220895       -4.1546003477        3.4489863251
 O         -0.5818209973       -1.6998608041       -4.2102660293
 H          0.0169523255       -2.2494698179       -4.7635049020
 H         -0.4473337543       -0.7751354189       -4.4982345139
 O         -1.9096329051        2.7422889316       -4.3593785326
 H         -2.8422030572        2.6280645614       -4.6269973150
 H         -1.5935430004        3.5723388959       -4.7517324283
 O          4.0340956981       -6.7328874254       -1.3749125889
 H          4.0233303126       -6.1029606374       -2.1155123009
 H          3.0941727972       -6.8298777052       -1.1538593859
 O         -6.4579438855        4.4165205491       -2.2202314174
 H         -6.2680095398        5.2573099442       -1.7744387149
 H         -7.3935512546        4.3843566589       -2.4319652573
 O          3.8965600993       -1.8614335511        1.6262525189
 H          4.3138296769       -2.7425554264        1.6164479293
 H          3.5524437223       -1.7012991514        2.5200288789
 O         -1.2321377576        3.8454006257        3.4597546139
 H         -1.8956409828        3.1456618063        3.3358431696
 H         -0.6825031601        3.6212354901        4.2417788488
 O         -6.2685099296       -2.2684171164        5.6354025037
 H         -5.2977933361       -2.2020894244        5.6381434259
 H         -6.4631766200       -2.7028892773        4.7890225762
 O          8.2232889934        0.7514640040        4.5111505175
 H          8.5232339218        1.3705590664        3.7989723056
 H          8.8317709291        0.8871863213        5.2373265907
 O         -1.6158781832        1.1499655829        4.5072475642
 H         -1.8928075882        1.7617958687        5.2116737406
 H         -1.3005301607        0.3565667546        4.9738987104
 O         -6.3091457977       -2.8599410386        2.9397758029
 H         -5.5985016902       -2.2049843475        2.7587802701
 H         -5.9027116831       -3.6990985942        2.6427305378
 O        -10.4413899607        1.1847962672        2.1772986279
 H        -10.2702494067        0.2814856771        2.4797692567
 H        -10.6061915225        1.1006469909        1.2271720521
 O          5.4111301155        1.5330521292        3.3807155132
 H          6.1187385415        2.1486007410        3.6089700353
 H          5.8327886299        0.7239540542        2.9993811842
 O         -8.7482309883        3.2843018972        2.1863450047
 H         -9.4569320310        2.6413866732        2.3755359093
 H         -8.5449869771        3.1125925557        1.2460973159
 O          1.7889274805        4.4037327954       -4.8569389049
 H          2.6515551576        4.8344289769       -4.7709019114
 H          1.4374246061        4.3987572312       -3.9332116695
 O         10.3622780659        0.6907950120       -2.8261658356
 H         10.3620945747       -0.0606884546       -2.2081002809
 H         10.0529594312        1.4569649094       -2.3208883307
 O          1.3516571516        6.1418369582        1.8448829754
 H          0.8324930365        6.2775326080        1.0376341909
 H          2.2612387395        6.4097909500        1.6505167056
 O          6.4866776203       -2.5207071911        4.5452865036
 H          7.1606268439       -3.1689672440        4.3047498091
 H          5.6475798476       -3.0107322173        4.5957758218
 O          2.3089465449       -6.5584020149        3.0691742880
 H          1.5744633318       -6.9380605289        2.5705180454
 H          3.0952809953       -6.6726318438        2.4907352686
 O         -0.8776128026       -2.6814626456       -1.7716322049
 H         -0.7246179458       -2.2642769727       -2.6414585440
 H         -0.0548051606       -2.5887706168       -1.2626000959
 O         -3.6527894687       -2.0290941970        4.8786341197
 H         -2.8709539299       -1.8579558438        5.4119920681
 H         -3.5618835063       -2.9743367285        4.6119087864
 O         -6.6932806883       -4.6823566066       -0.7090825522
 H         -6.5775379346       -4.6945434097       -1.6672156787
 H         -6.2786565015       -3.8401125533       -0.4035023558
 O         -8.5785756308        2.8374599237       -3.0709123313
 H         -8.6446970393        2.7650768993       -2.0945834208
 H         -9.1920327233        2.1864498696       -3.4292490190
 O         -0.7716875902        5.0254318100       -5.3802548581
 H          0.1850604395        4.8195414509       -5.3460960322
 H         -0.9398472206        5.4781488970       -6.2054537364
 O         -7.8448116119       -0.5806270700        2.4391797215
 H         -7.3134886086       -1.3827622839        2.5634882878
 H         -7.2267546625        0.1457749623        2.2019924286
 O         -2.7386855390       -3.0408083616        1.8527782919
 H         -2.1471906555       -3.7020573305        1.4405819839
 H         -2.8750347263       -2.3733745953        1.1524033354
 O         -3.9625516236        0.9651473988        0.0374233551
 H         -3.7720064893        1.3488665425        0.9094683072
 H         -4.9217889424        0.8068613298       -0.0291858662
 O          4.3810167466        3.5071011960        1.8821760668
 H          4.7206170127        2.6342560537        2.1510936260
 H          3.4461927580        3.5387040026        2.2077802378
 O          6.6823079045       -5.5553688370       -1.2790830174
 H          5.9821465503       -4.8437600312       -1.2403960151
 H          6.1964636717       -6.3698367113       -1.1191037637
 O          8.4107802046       -4.0694088038        3.3161518590
 H          8.2478119752       -4.2106492948        2.3603863110
 H          9.1889680870       -4.5791133437        3.5396533255
 O          3.8556888204       -0.9453095932        4.1329334672
 H          4.5617698375       -0.6359295064        4.7172738208
 H          3.2113963451       -1.4047732949        4.6959566583
 O          6.5135354319        1.5997926578        0.8312543925
 H          7.2712774683        0.9948816080        0.8022897338
 H          6.8754043403        2.4979212605        0.8799431856
 O         -0.4764192924        6.2719934426       -0.2779782669
 H         -0.6075038495        6.3224530005       -1.2474059194
 H         -1.3271778545        6.5794104174        0.0839657760
 O          6.2038655656       -5.1757699529       -4.0487871164
 H          6.5208502605       -5.4577072543       -3.1791397205
 H          5.2464757090       -5.0801382493       -3.9544492318
 O          3.4392245728       -3.5693643537       -5.9219391262
 H          3.6687254945       -3.8981400380       -5.0411114824
 H          4.0864272388       -2.8968340144       -6.1491845932
 O         -3.3828096066        2.2376865430        2.5104708970
 H         -3.6907425169        1.5945040860        3.1691827856
 H         -3.9258929262        3.0395367343        2.6372266437
 O        -10.4627542799        0.5301351957       -0.5774021841
 H         -9.7412142374       -0.1382199465       -0.4029903077
 H        -11.2703577362        0.0045968453       -0.5405537284
 O          7.9112323249       -4.1534949797        0.6878100908
 H          7.5686774122       -3.2850660833        0.3492085271
 H          7.6177680503       -4.8093053775        0.0245605604
 O         -4.7020495902       -4.7725752754        2.0742333326
 H         -4.5837027171       -5.3385257461        1.2957600187
 H         -4.0135297228       -4.0682162065        1.9815564789
 O          9.0269295542        2.4701697925       -1.0158387398
 H          8.1527885516        2.3299625004       -1.4718664394
 H          9.1202974582        1.7082116845       -0.4288744691
 O          9.0953813146       -1.3617012162        2.9076127634
 H          8.7392155123       -0.7113645786        3.5380674344
 H          8.7245416379       -2.2202950797        3.1573011307
 O          9.7519120011       -1.4089813048       -1.1904354079
 H          9.0808201574       -1.9688613599       -1.6391303706
 H         10.2208598121       -2.0050199215       -0.5743608359
 O          3.8421358637        1.6965291627        5.5335340011
 H          4.3464508246        1.6313077461        4.6925635107
 H          4.3717626806        1.1979459782        6.1625938768
 O        -10.6607821863       -1.5888145238        2.5155912070
 H        -11.2406322297       -1.7134753440        3.2662053135
 H         -9.9635243554       -2.2949482386        2.5878547019
 O        -11.6859683288       -1.8396043073        0.0286018815
 H        -12.4381860249       -2.4237911026        0.1127634975
 H        -11.2862401783       -1.7617074696        0.9238805145
 O         -2.2610237608        2.7140342348        6.6806915594
 H         -3.0647898870        3.1988599601        6.4564634020
 H         -2.5738245329        1.8742990104        7.0839059479
 O          5.3435288705       -4.1072167328        1.8524045328
 H          5.2220308652       -4.2149207031        2.8127847444
 H          6.2841191700       -4.1370038412        1.6349988398
 O         -4.5126386963        0.5343156002        4.5212381931
 H         -4.1614516161       -0.3695257496        4.4097635519
 H         -5.4818535073        0.4204662545        4.6405526875
 O          6.5070801492        4.1588846415        3.4635452261
 H          5.7386364318        4.0597203185        2.8689500033
 H          7.2433876551        4.3839980968        2.8898593397
 O         -5.8277021717       -4.0234891380       -3.2823034125
 H         -4.9997324424       -3.8917032472       -2.7570179043
 H         -5.6241820687       -3.7229445461       -4.1716813993
 O        -10.4369898535       -2.2441427256       -2.5234303538
 H         -9.4734467478       -2.3307133157       -2.4245185695
 H        -10.8038925815       -2.1128974024       -1.6377805449
 O          4.1883013813        6.2399901967        1.5286634096
 H          4.3155367583        6.4525975470        2.4745791916
 H          4.2480609200        5.2707357832        1.5126480264
 O          0.0151550291       -6.9541008429        1.5270193994
 H         -0.7103733103       -7.3148154834        1.0028220120
 H         -0.3634154049       -6.2512310197        2.0882463067
 O         -7.0754286077        2.7585638871        4.2220390779
 H         -7.3607987352        1.9461132028        4.6637767348
 H         -7.7904803819        3.0223201817        3.6105488625
 O         -8.4966430231        2.4483706849       -0.4047969002
 H         -7.7265337650        1.8298058914       -0.4274924203
 H         -9.2853897987        1.8915211939       -0.3720957197
 O          6.2938478648        5.6996770247       -0.3553353336
 H          5.6967758397        4.9719473428       -0.6549424881
 H          5.7516353504        6.2455615639        0.2276786689
 O          4.2349741264        0.6381886394       -3.5294456147
 H          4.4003959076        0.8363761715       -2.5989934547
 H          5.0186789750        0.9104367044       -4.0378494795
 O          6.7340928392       -1.9294014053        0.0149170833
 H          6.7879786920       -1.3733442714       -0.7939657647
 H          6.6502586546       -1.3493478160        0.7907737517
 O         -3.2036240644        0.2692508027        7.0754703182
 H         -3.7827749193        0.2709686728        6.2976832311
 H         -2.4721351960       -0.3240777139        6.8612986631
 O          4.5510039298        6.0653078135        4.1989092316
 H          3.8753847565        5.5732788199        4.6846982345
 H          5.3470295304        5.5146916972        4.2242970159
 O          2.1304823104        3.2646627512        0.1603829938
 H          1.1903833909        3.4181288907        0.3707257060
 H          2.4012108678        2.5107580471        0.6942554087
 O         -4.7059807837        3.1223260772        5.4767046210
 H         -5.6687031784        3.1741996406        5.5078004825
 H         -4.5246513104        2.2148905446        5.1732362653
 O          9.2360529161        2.2056995406        2.5721855976
 H          8.8006964637        2.9610105003        2.1549055915
 H          9.3278602415        1.5338292786        1.8802481287
 O          8.3499762125       -0.3408529868       -4.1918704161
 H          8.5569632996       -1.1879878005       -4.5971473684
 H          9.1745272059        0.0414800688       -3.8098613701
 O         -3.0054313251        6.5218875420        0.7130725994
 H         -3.0394652856        5.5572355222        0.5110183661
 H         -2.8718041821        6.5740084955        1.6716489426
 O         -5.4635226985        6.3660867509       -0.5130331516
 H         -6.0288779828        6.1650998697        0.2453070658
 H         -4.6197591402        6.6559644611       -0.1215744779
 O         -7.5852786404       -0.5417569825       -4.3331540392
 H         -8.4678549559       -0.1433549662       -4.2991616732
 H         -7.6049960609       -1.2120230816       -3.6109015153
 O          3.4305012007       -5.0548575158       -3.5051979884
 H          2.8576921686       -5.6516416888       -3.9886567980
 H          2.8217688444       -4.4165222583       -3.0321413444
 O          6.5722486444       -0.4914342855       -2.1933309412
 H          7.2616135488       -0.6225369713       -2.8709829220
 H          6.5204392595        0.4773995178       -2.0801668635
 O          0.9389879201        4.4665788816       -2.3703885813
 H          0.0609948993        4.1227807645       -2.0697925064
 H          1.1604136459        5.2484538081       -1.8567255901
 O         -1.1001804304       -1.2041373688        5.8412308053
 H         -0.2927278798       -1.3487936564        6.3406472348
 H         -0.9703748166       -1.7253073042        5.0002445664
 O          4.4298363957       -6.6329785663        1.3962718449
 H          4.6709174698       -5.6903136594        1.4419418803
 H          4.2895289747       -6.8108023477        0.4554090414
 O          8.8262300530        0.1817692282        0.6837643086
 H          9.1164467458       -0.3900015412       -0.0694232570
 H          8.8493654364       -0.4084379188        1.4605231449
 O          7.9630860597       -3.0281474443       -2.3294776310
 H          7.8641075642       -3.9605560109       -2.1284952123
 H          7.8041813205       -2.9387631213       -3.2891227614
 O         -4.2532155506       -5.9113418485       -0.4056240279
 H         -5.2118820666       -5.9057223277       -0.5268210923
 H         -3.9354191504       -5.1319471642       -0.9055885689
 O         -5.1249051497        4.7654927321       -4.7208600392
 H         -4.4245406604        5.0595086806       -4.1072412708
 H         -5.8714444863        4.5943508678       -4.1319689116
 O         -5.1685221099       -1.7980465417       -5.0711632134
 H         -4.5165624249       -1.1494040984       -5.3900458395
 H         -6.0378419616       -1.3879102111       -5.1709541208
 O         -9.1334552431       -3.8361857218       -0.1727183837
 H         -9.7207797876       -4.0609991492       -0.8962632165
 H         -8.2527029638       -4.2394237486       -0.3755406617
 O         -8.5812971869       -1.1727064013       -0.0041204314
 H         -8.4300518683       -0.9750499652        0.9489292362
 H         -8.8488126867       -2.1101259516       -0.0465028266
 O          0.7620207824       -3.1771177912       -5.9556216507
 H          0.5668654504       -2.5051037143       -6.6370576208
 H          1.7299606930       -3.3139149621       -5.9752851940
 O         -7.1411116670        0.1258155351        4.9800530823
 H         -6.9236197352       -0.7303049200        5.4218858456
 H         -7.6270001520       -0.1300809669        4.1762820525
 O         -4.4400052997        2.2607169048       -5.2083028355
 H         -4.6820467281        3.2148256707       -5.2478830207
 H         -5.0698429151        1.8930002241       -4.5604773820
 O          5.4146339478       -1.3199647188       -5.8298077159
 H          5.7864868376       -0.4312084852       -5.7459433129
 H          5.1671845356       -1.5906516644       -4.9123951085
 O          0.2278952959        3.1557891752        5.6375216354
 H         -0.5167470345        3.1029958208        6.2524482479
 H          0.5625644524        2.2358889982        5.5264533781
 O         -3.0998207577       -0.0799975264       -5.5595763435
 H         -2.2991355315       -0.0596783489       -6.0885171709
 H         -3.5144190562        0.7986019765       -5.6178231444
 O         -0.4682789957       -5.3861418426       -2.4129001371
 H         -0.4969942997       -4.4268400097       -2.2467384129
 H         -0.5353274845       -5.4667794479       -3.3885492191
 O         -3.3074291909       -4.6350956392        4.4433279889
 H         -2.4227592625       -4.8661742308        4.1190976933
 H         -3.9191259185       -4.9006750575        3.7402947639
 O          7.5211548578       -2.9834874215       -5.0042196262
 H          7.0904148573       -3.8456852960       -4.8522406711
 H          6.8553975844       -2.4449321430       -5.4618343959
 O          2.9681889308        2.7795100117       -2.3919376889
 H          2.1975089613        3.3538959797       -2.2041538319
 H          2.6443152639        1.8689928428       -2.2705162844
 O          6.5488131528        3.8464045227       -4.1606755066
 H          7.2266552980        4.4138481217       -3.7473793130
 H          5.7042518540        4.3186399997       -4.0281047433
 O          0.3229936422       -0.8755178846       -7.3288771231
 H          0.0613684535       -0.2456322177       -6.6384233883
 H          1.2751405602       -0.7348542584       -7.4270925753
 O          6.3563110548        1.2267319681       -5.1210962364
 H          6.4958492584        2.1809277343       -5.0521821584
 H          7.1722841893        0.7951578345       -4.8066242557
 O         -6.7472592236        5.2142500333        1.7176353486
 H         -7.5613951398        4.8179693228        2.0517884854
 H         -6.0528891751        5.0527749296        2.3874375260
 O         -0.8664383565       -5.1806776270       -5.0287864477
 H         -0.2226881588       -4.5821149190       -5.4455167842
 H         -1.6679627877       -4.6481775152       -4.9180832630
 O         -1.2237274464        6.3138736957       -2.8539395536
 H         -2.1115645128        5.9429347460       -2.7060267794
 H         -0.9276814511        5.9242332282       -3.6858704567
