  241
       -407.59149422
 H          0.3520749031        0.5521507987       -0.1376639839
 O         -1.5789423112        2.0388918935        1.8322932158
 H         -2.4519162644        1.7506574460        1.5110162754
 H         -1.0817748638        2.4442661476        1.0841378767
 O          3.6652996975       -1.6952757127       -5.2861794333
 H          3.3473636588       -0.7993388271       -5.0893544632
 H          2.9763166052       -2.3218441646       -5.0427123498
 O         -1.8958873849        4.0195028986       -3.5377016359
 H         -1.0710120598        4.1387877401       -4.0636314283
 H         -2.1448516435        4.9098837807       -3.2090756330
 O         -4.0678433157        0.0898066021       -1.3518408942
 H         -3.2253801737       -0.2578185949       -1.7157182413
 H         -4.4157730935        0.7583193349       -1.9755815521
 O          1.9704018718        2.4367716510        1.8708244053
 H          2.8603138348        2.2374733764        1.5306557433
 H          1.6166772882        1.6134680113        2.2431095182
 O          1.2904481158        0.4337564739        0.2431966618
 H          1.9836652456        0.7590114208       -0.4216901282
 H          1.4083409639       -0.5554256305        0.5727402221
 O         -5.3047199822        1.8825325751       -2.9017082678
 H         -4.8516558310        2.3819643136       -3.6099246777
 H         -5.4049432719        2.4878874616       -2.1445523988
 O          5.4947697024       -1.9035137205       -3.3755835423
 H          5.1861479990       -2.6669601849       -2.8753674511
 H          4.9411380785       -1.8702537114       -4.1889382340
 O          4.4720996551        1.8292847157        0.9172589920
 H          4.9634007259        1.9732541674        1.7292959532
 H          4.4069239867        0.8535949445        0.7875481027
 O          0.0567700828        3.1792097212        0.1628540218
 H          0.8482480451        2.9437870497        0.6835736178
 H          0.2605221109        3.0377648764       -0.7784737695
 O          3.1388877229       -0.1368435783        2.7430653211
 H          3.9452528217       -0.6184033143        2.9916433519
 H          2.4780565950       -0.3517531729        3.4179858588
 O         -0.9426038567       -3.5969885763        0.8441665092
 H         -1.7309574389       -4.1477251756        1.0004088690
 H         -0.1892649692       -4.0375953795        1.2847490612
 O          2.5859092868        1.7640045725        5.9935674836
 H          2.7003564156        2.0643850554        6.8943987517
 H          1.6741084628        2.0221227055        5.7187642151
 O         -2.0670615964       -1.3467484885       -2.3078388607
 H         -2.4420960329       -2.1905673241       -1.9819072800
 H         -2.4166574601       -1.2637958332       -3.2180255359
 O         -1.0809206506        0.6188373720       -0.6274758846
 H         -1.1470419764        0.3994323837       -1.5745580031
 H         -1.5579159734       -0.0705973139       -0.1139220445
 O         -1.1583089162        1.0512531419       -3.3145515070
 H         -0.3982379608        0.4545318591       -3.4037257743
 H         -0.7449099287        1.9184090737       -3.1530289734
 O          2.8343263847        1.5889315403       -1.4005297939
 H          3.6708453646        1.2063438481       -1.7146744419
 H          3.0229458320        2.4514149281       -0.9764099284
 O         -4.0377815738        1.2058206160        1.0544368545
 H         -4.0055089852        0.7940267679        0.1628031401
 H         -4.5142742482        2.0435917883        0.9469111635
 O          1.0942688563       -4.1349176434        4.5232924554
 H          0.4406922646       -3.9765956685        5.2415757240
 H          1.9714499366       -3.9349125791        4.8689243681
 O          2.9558766859        4.1390239574       -0.3363188958
 H          3.4765418300        4.1919266896        0.4903251676
 H          2.1355301548        4.6142323723       -0.1193709306
 O         -0.9592800758       -6.7406500289        1.3135282691
 H         -1.3258726960       -6.5721942285        0.4329605431
 H         -1.7034362927       -6.8414332265        1.9088876098
 O          0.8910977805        5.8578304079        0.3913996459
 H         -0.0437938734        5.5978558583        0.1955296536
 H          0.9497405096        6.8044721744        0.2704716318
 O          5.4823269699       -1.1339052663        3.7971224530
 H          5.9838537579       -1.4032560877        2.9822616288
 H          5.9695359857       -0.4096148677        4.1903360947
 O          5.4617995173       -4.0935378958        0.6292243431
 H          4.6762380491       -3.8204570742        1.1551061278
 H          5.6097404565       -5.0216787884        0.8112841696
 O         -3.1499415943       -3.7622909548       -1.9716179254
 H         -2.8509216285       -3.8172439211       -2.9229364390
 H         -4.0582665152       -3.4117213567       -1.9774111444
 O         -3.6270757035       -1.2556576920       -4.5041490051
 H         -3.3138520043       -0.4832058168       -5.0220307171
 H         -4.5594284182       -1.0827903008       -4.2979278171
 O         -0.1507439038       -2.1155177030        3.2195280429
 H          0.4142763404       -2.7373964931        3.7162174494
 H         -1.0482764329       -2.4915216059        3.2836505012
 O          4.0330417194        4.4616299428        2.1692442307
 H          4.1764119819        3.6913812450        2.7487599864
 H          3.3047597571        4.9446076466        2.5765913299
 O          2.9734248889        0.8948435232       -4.5193123537
 H          3.5970911284        1.5316582392       -4.1340924381
 H          2.4237296541        1.3835762373       -5.1625854649
 O          3.5124334318       -2.7867894216        4.6412597379
 H          2.8983151784       -2.0646956153        4.8803409836
 H          4.3802143940       -2.3590337012        4.5699250632
 O          0.3250086700        4.3599037927       -4.9474316253
 H          0.6078986322        3.5350068823       -5.3791718600
 H          1.0803853594        4.6800442782       -4.4400121928
 O          0.6519919919        2.7575375741       -2.4279359289
 H          1.3328971791        2.0773120413       -2.2939763180
 H          1.1462701255        3.5466230017       -2.7167300523
 O          4.2485079895        2.1389605291        3.7328431757
 H          3.7966196631        1.3588286092        3.3426336173
 H          3.8392096037        2.2319184831        4.6015012278
 O          4.5014412815       -0.6755907036        0.1461055394
 H          4.8697688295       -0.3494258432       -0.7019833748
 H          3.6966673730       -1.1561944057       -0.1200090858
 O         -2.4058726703        2.9700153420       -1.1038623371
 H         -1.9137947475        2.1544770531       -0.9032759443
 H         -2.1775474422        3.2239811437       -2.0165631737
 O         -6.2193117237       -0.5000365800       -3.8547674196
 H         -6.0090089096        0.3809287948       -3.4887456615
 H         -6.8465529913       -0.3590175652       -4.5638166731
 O          2.4796030961        4.6289682277       -3.0475451588
 H          2.7072493358        4.7393779811       -2.1113764163
 H          3.1988453355        4.0785937697       -3.4053609596
 O         -1.1664673066        3.8983127657        3.6817037956
 H         -0.3186538298        4.3556256933        3.4667844189
 H         -1.2867283390        3.2428301967        2.9548297547
 O         -4.9561825310        3.3514644724        2.5734770709
 H         -5.6744829018        3.7313881109        3.0782472195
 H         -4.4155364212        2.8269662367        3.2092142133
 O          0.0930404924       -2.7680686314       -1.4617657684
 H         -0.2703284296       -3.0138472947       -0.5890540712
 H         -0.5331623565       -2.1496082297       -1.8713797923
 O         -4.6085905994       -2.4734467311        0.8375380952
 H         -5.0467775541       -2.4746208871       -0.0273033144
 H         -5.1119785236       -1.8652469850        1.4083406422
 O          1.2036165217        2.0378604647       -6.1758922823
 H          1.4643677518        2.2329149439       -7.0763967965
 H          0.6392006070        1.2178334665       -6.2362712330
 O          2.3084930350       -5.4471944664       -0.6089054663
 H          1.9084583358       -5.2896270840        0.2522822836
 H          1.5696220682       -5.5270387446       -1.2451217822
 O         -1.6846781174        5.3935155537       -0.0835786330
 H         -2.1974616182        5.4583504245        0.7563638532
 H         -1.7354429735        4.4499309052       -0.3364769643
 O         -0.9231382898       -3.2826395950        6.0096472203
 H         -0.9148550283       -2.3213716457        6.1074541969
 H         -1.6087691839       -3.4734601936        5.3527307891
 O          0.0881238801       -2.1478296046       -4.5150791753
 H          0.7729339396       -2.8309951675       -4.5195097023
 H          0.4224215608       -1.4801151655       -3.8749410581
 O          5.6436756972        3.0586559424       -1.1631402255
 H          5.7183318099        3.9689464093       -0.8737377517
 H          5.2217222003        2.5832823347       -0.4115623207
 O         -0.2251940411       -0.1378074450       -6.4015672345
 H         -0.1157961272       -0.9196075145       -5.8314895295
 H         -1.1454379629        0.1484737544       -6.3079063163
 O         -2.6040590762        0.9568913531       -5.5291502535
 H         -2.0677826207        1.0717952958       -4.7088983307
 H         -3.1850998339        1.7295733729       -5.5562217696
 O         -2.2599678563       -3.6045543773       -4.4100973876
 H         -1.3730493639       -3.2001660795       -4.4452916679
 H         -2.8538948875       -2.9158409321       -4.7461204268
 O         -3.3317332658        2.0730672702        4.2904713152
 H         -2.9326677989        1.3183714471        3.8018877097
 H         -2.6397078024        2.7400626258        4.3694360107
 O         -2.3967540370       -0.2671921264        3.3552359672
 H         -2.2720165549       -0.5068076265        2.4156042312
 H         -3.1493274360       -0.8068106791        3.6672340235
 O          0.3194756848        0.5723693069        2.9468296407
 H          0.1118690317       -0.3653308621        3.0801745686
 H         -0.4446119408        0.9794632486        2.4873855969
 O         -2.2865921038       -6.0857854210       -1.0897804482
 H         -2.6237603195       -6.7354056050       -1.7072949482
 H         -2.6032411939       -5.2025908596       -1.4037194168
 O         -2.1869480151       -1.2523407872        0.8679529485
 H         -3.0884686277       -1.6110889743        0.7595347155
 H         -1.6052156057       -2.0354947075        0.9273637324
 O          3.2861814988       -3.4136418345        2.0548532706
 H          2.6597003494       -4.1484732060        2.0204253720
 H          3.4029615785       -3.1948787645        3.0090319085
 O          6.5819241637       -1.7128537033        1.5001378207
 H          5.8654309954       -1.2959413390        0.9816250060
 H          6.5374238471       -2.6448154519        1.2488871409
 O          1.3260081894       -1.9064409263        1.0405715422
 H          0.7137624790       -1.9608595207        1.8038015303
 H          2.1768896458       -2.2728782001        1.3508328749
 O          0.0921525995        2.0060541486        5.1468442014
 H         -0.3418786791        2.8230117607        4.8385633901
 H          0.2669894762        1.4936024036        4.3159752523
 O         -5.7179743539       -0.4272897219        2.2564966440
 H         -5.0533474747        0.2190393065        1.8965530339
 H         -6.5770036393       -0.0165510736        2.1659054063
 O          4.5695809194        2.9653661512       -3.6031200362
 H          5.2932704721        3.1562431051       -4.1994507207
 H          4.9505581441        2.9473419139       -2.6914712151
 O         -4.0021442580        3.2287090091       -4.8528714609
 H         -4.3710965866        3.9974557162       -5.2868313563
 H         -3.1828435412        3.5361754107       -4.3748774518
 O          4.1332981327       -3.8795540505       -1.7407915365
 H          4.8101996908       -3.8567568559       -1.0391577753
 H          3.4796641438       -4.5252205548       -1.3842294649
 O         -4.9771187289        3.2950065044       -0.5958196774
 H         -5.1369400351        4.1881300474       -0.2923462220
 H         -4.0079570403        3.2267446465       -0.7640827444
 O          1.8030002251       -0.7507896437        5.1127113652
 H          0.8578981734       -0.7809662451        5.3366661953
 H          2.1655476525        0.0510898371        5.5248291109
 O          5.1683307965        0.3762335710       -2.1863140568
 H          5.9977439384        0.8541705377       -2.2018280012
 H          5.2994174437       -0.4700417346       -2.6993762752
 O         -2.6290186908        6.3172099871       -2.3941676830
 H         -2.2346460448        7.1657994024       -2.5934921592
 H         -2.3315356415        6.0710778766       -1.4870738683
 O         -4.4614324810       -1.6777953651        4.3527508583
 H         -5.1316161669       -1.2722140572        3.7833825499
 H         -4.3886958968       -1.1288852591        5.1667291205
 O         -3.0296234638        5.2784051269        2.1859893806
 H         -2.3833950290        4.9696537575        2.8453860103
 H         -3.7565360403        4.6313148226        2.2126863398
 O         -5.3766869493       -2.1920194576       -1.7636000532
 H         -6.0000426830       -2.0245928212       -2.4765922664
 H         -4.9361183668       -1.3193683061       -1.6192055103
 O         -2.4952535131       -3.4177176996        3.6809435980
 H         -2.7982199648       -4.0675392912        3.0382377256
 H         -3.2793289848       -2.9056279246        3.9459438822
 O         -3.3216730638       -4.8032287501        1.3392153991
 H         -3.3932378645       -5.3795374461        0.5717297834
 H         -3.8831836457       -4.0229527418        1.1612150786
 O          1.0172882228       -5.0561509106        1.9920701335
 H          0.4545345842       -5.8367616716        1.8308277612
 H          0.9801426949       -4.8821029292        2.9515683799
 O          0.2372739105       -5.2733481511       -2.3240144191
 H         -0.5513984225       -5.6989710417       -1.9689934789
 H          0.1398662387       -4.3158741600       -2.1179678290
 O         -0.9569952820       -0.4448880743        5.6548216190
 H         -0.6875859453        0.4847074555        5.7572340323
 H         -1.3723118745       -0.4823376402        4.7678535929
 O          2.5629491765       -1.7765182048       -1.3105923309
 H          3.1748363150       -2.4865569222       -1.5921721838
 H          1.7115255119       -2.2261779207       -1.1416994218
 O         -3.7374494997        0.0727168223        6.2131207142
 H         -3.7230063620        0.9016637957        5.7075438968
 H         -2.8115970520       -0.1719917677        6.3517787745
 O          2.1691826447       -3.8657056400       -3.9273905275
 H          2.9677521333       -3.9245485290       -3.3906836929
 H          1.6045918128       -4.5915358507       -3.6349016415
 O          1.2115279119        4.7834668293        2.8960339410
 H          1.0582969172        5.2513649224        2.0564115667
 H          1.5238908018        3.8947746169        2.6256089252
 O          1.1748608483       -0.2558822566       -2.9769273866
 H          1.8311424623        0.1962618043       -3.5485431341
 H          1.7205169321       -0.7836756559       -2.3565479253
