  387
       -651.66265044
 H         -1.1180369130        2.3270922593       -0.0947947559
 C         -1.0254314916        1.2436108362       -0.0613626442
 H         -1.6003527496        0.8573982638        0.7791060906
 C          0.4392366405        0.8586128964        0.0881023725
 H          0.8786704137        1.4145704758        0.9082131725
 H          0.9651785530        1.1062571556       -0.8300627120
 O         -1.5636575300        0.7613767490       -1.2810429722
 H         -1.8435417160       -0.1643883194       -1.1306202983
 N          0.5935717039       -0.5807686693        0.3624186115
 H         -0.0614580400       -1.1349772683       -0.2172064029
 H          0.2974821150       -0.7850335047        1.3655424424
 H          1.5893398582       -0.8263524449        0.2006015945
 O          3.2233611721       -3.4077775958        2.6972863971
 H          2.7246339124       -2.7038885608        3.1555572285
 H          3.7273740503       -2.9414559214        1.9908729106
 O          1.0279846264        1.7783056866       -2.9052304934
 H          1.1463223241        0.8209044668       -2.9790654826
 H          1.9349282751        2.1526947331       -2.9870304978
 O         -0.2928782975        3.8577747538       -1.4080249794
 H          0.2767897869        4.6234330830       -1.1985153859
 H          0.2758063728        3.1978362702       -1.8317645190
 O         -1.7790601758       -1.6992216168       -0.3212035906
 H         -1.7218316482       -2.6633315564       -0.4187317801
 H         -2.2853794906       -1.5401238764        0.4920988060
 O          0.4903713173       -3.4430468390        1.5579802852
 H          1.3136047500       -3.2072883199        1.1112666967
 H         -0.0477069099       -3.9133393093        0.8895331497
 O          3.2529199921       -0.2093999355        0.0048929468
 H          3.7960311121       -0.9162873871        0.4114416327
 H          3.3353196846        0.5588079467        0.5909449156
 O         -3.1978159812        2.5769647778       -2.5808908984
 H         -2.5194922178        2.0600477827       -2.1211056522
 H         -2.7575147943        3.3081557376       -3.0300732871
 O          5.5814378563        3.1849102614       -0.3178392146
 H          5.4523890086        3.5576355613        0.5717548814
 H          5.0625923541        3.7592391844       -0.9120181477
 O          3.4636040054        2.2106839948        1.3618778187
 H          4.0184009461        2.8415525430        1.8399028902
 H          3.0797508149        2.7156007208        0.6140603456
 O          3.5471482576       -4.5943726046       -3.0849740545
 H          3.4582719562       -5.1988409610       -2.3398443683
 H          2.7243620364       -4.6588652494       -3.5766373461
 O         -0.3661151711       -0.9633177758        2.7784361243
 H         -0.7263452560       -0.1061335124        3.0495415365
 H          0.3846061845       -1.1489743994        3.3673318313
 O         -1.9755042727       -3.1166200501        2.6559003966
 H         -2.0160822916       -2.5383189111        3.4424000721
 H         -1.1026511167       -2.9376318301        2.2689017837
 O         -1.8507761498        3.9399327151        1.8204766379
 H         -2.3062836731        4.6006502479        1.2590971228
 H         -1.8248365683        4.3472689030        2.7182089783
 O          1.7328046110        1.2520046552        3.1355964837
 H          2.3744199197        1.6017794598        2.4828533727
 H          1.8486887662        1.8158593229        3.9285002883
 O          2.9591706574       -5.4592241956       -0.4344784890
 H          2.6691351305       -4.5114195357       -0.3771129876
 H          2.8161860159       -5.8101949930        0.4615257690
 O         -3.9527693064       -3.6688240440        0.9868621591
 H         -3.1678786939       -3.4077495426        1.5092812108
 H         -3.8175064226       -4.6013338178        0.7123909251
 O          0.2174685440       -0.5619652814       -5.9519033576
 H         -0.0977657141       -0.4751718609       -5.0272147444
 H         -0.5894726736       -0.6408474365       -6.4803978563
 O         -1.0429228926       -4.2178454100       -0.4870198784
 H         -1.2345156992       -5.1665163153       -0.6190455673
 H         -0.4872361634       -3.9146455972       -1.2279075155
 O         -0.2561260468       -6.5221711059        1.5879133187
 H          0.6538985119       -6.2711826426        1.8100432609
 H         -0.8053217409       -6.2916045255        2.3535186978
 O         -0.9060229688        1.6629395009        3.1015822119
 H         -1.2414848607        2.3813986801        2.5513360662
 H          0.0738961643        1.6584160872        3.0067691347
 O         -2.4306159032        1.3339247370       -4.9565995450
 H         -1.6171497271        1.8680115726       -4.9983175088
 H         -3.1669393871        1.9583447793       -5.1468389539
 O         -3.5483910258       -0.1936568364       -2.9369401581
 H         -3.1043777538        0.4554358873       -3.5076671184
 H         -3.9817859908       -0.8004631457       -3.5480603740
 O          3.5330471884        2.5669853300       -2.9096812518
 H          4.0975467333        1.8522264444       -2.5307843948
 H          4.0123785604        2.9311469235       -3.6715364167
 O          2.2863259325       -2.9078282980       -0.4098675639
 H          3.0913045850       -2.5400628898       -0.8299505210
 H          1.6110272491       -2.8987031559       -1.1194993114
 O          0.7944254696        3.6732788572        1.5640563050
 H          1.1460765874        3.5704330978        0.6701502165
 H         -0.1664216223        3.8212053715        1.4867521106
 O         -1.6039808138        4.7617717831       -3.4391776566
 H         -1.1977320658        4.2287279511       -4.1508239208
 H         -1.1491286014        4.4332816875       -2.6102808315
 O          8.0446637842        1.6833534098        2.0746506214
 H          8.5167413963        0.9820592985        2.5399137468
 H          7.2428300459        1.2654503944        1.6811661214
 O         -3.8542079591       -6.2591256695        0.3106734143
 H         -3.9704549960       -6.5301777806        1.2524716906
 H         -4.7093768640       -6.3919416023       -0.1236119783
 O          7.4649747522       -0.7167764593       -3.3219589919
 H          6.6851363274       -0.7111193067       -3.8994179886
 H          7.6728469106        0.2244720190       -3.1861707513
 O          0.4558455466       -2.9456401361       -2.2950729208
 H          0.4769407631       -3.5891227920       -3.0310141738
 H          0.1625864376       -2.0923590225       -2.6693193967
 O         -2.3347574355       -2.7906911780       -3.3798162907
 H         -2.1411830073       -3.7436806994       -3.3697562404
 H         -2.9041828876       -2.6381296107       -2.5979029095
 O         -3.4331026593       -0.8556894076        1.6347263564
 H         -3.4207523089       -0.5163451335        2.5429497897
 H         -3.6469371551       -0.1214352690        1.0201826075
 O          2.3818770684       -5.8731469827        2.1691005388
 H          2.6484503726       -6.4060268529        2.9174842476
 H          2.5794528675       -4.9391196787        2.4120598930
 O         -2.1348630619       -5.5054058872       -3.2325848463
 H         -1.8626371370       -6.0799586217       -2.5058575008
 H         -3.1123000438       -5.4992231032       -3.2093259371
 O          4.7524595910       -2.1766323685        0.9725781918
 H          5.5453952512       -1.8367327961        1.4194267486
 H          5.0486568906       -2.9305188085        0.4208868665
 O          7.7511772687        4.3993154612        2.1977696283
 H          7.9895934172        3.4637288472        2.3079348869
 H          7.9908892202        4.6101520104        1.2758138535
 O          2.2342268982       -0.7570424979       -3.1111560739
 H          1.9673291994       -1.4775734182       -3.7069813391
 H          3.0045882251       -1.1029971510       -2.6335262677
 O         -1.0814278550        6.9067655675        2.4431196175
 H         -1.8130390140        6.7895453151        1.8228099996
 H         -1.3253602788        6.4284261077        3.2466704002
 O         -0.8095005811        2.6802129711        5.5452624600
 H         -0.9130683295        2.2710989533        4.6539462311
 H         -1.6416541463        2.4638490631        6.0243607681
 O         -1.8302640625        4.9099051107        4.3042886863
 H         -2.7616149624        4.7959474014        4.5562426743
 H         -1.3356791626        4.2744289774        4.8561781524
 O          1.2292620210        6.0049553855       -0.7879987344
 H          0.9205283329        6.6688140318       -1.4113967359
 H          1.1976167542        6.3584339910        0.1204421700
 O          2.4149251185        3.5285118827       -0.6636446997
 H          2.3043057675        4.4815505135       -0.7867175980
 H          2.8339793800        3.2227568923       -1.4901183276
 O          4.4071284123        5.1586278006       -1.8201136507
 H          3.6283282373        5.0945813228       -2.4074601512
 H          5.1966316295        5.1115891797       -2.3817271244
 O          4.9022063997        0.6010850498       -1.9484432885
 H          4.8922136940        0.0487998206       -2.7529701565
 H          4.2775620021        0.2188736315       -1.2940046773
 O          5.9869403317        0.6834388102        0.7548653753
 H          5.6662976288        1.4765798999        0.2929927823
 H          5.3233163743        0.4351082124        1.4345924039
 O          2.0450575895       -1.3217975718        3.8945129455
 H          2.1759892923       -0.4292157712        3.5044175910
 H          2.3568197894       -1.2470033570        4.8051636217
 O         -1.9911978067       -1.6825749853        4.9916655791
 H         -1.1932160769       -1.2403542069        5.3211242689
 H         -2.6018417667       -0.9641078337        4.7666204052
 O         -4.2229442041        0.6736620082       -0.3637529311
 H         -4.0187684524        1.6349883960       -0.3441048144
 H         -3.9428250656        0.3452470720       -1.2348140660
 O         -3.9363543555        2.3279580196        2.5513911208
 H         -3.3567635529        2.8105210909        1.9358852154
 H         -4.7697029754        2.1295642728        2.0833452937
 O          4.9996688222       -0.4585504741       -4.4492938003
 H          4.3970443481        0.0745324005       -4.9840849991
 H          4.8243232858       -1.3898828833       -4.7153948696
 O          1.8898636616        2.9516249967        5.1756723964
 H          2.2373666259        3.7780455427        4.7710609603
 H          0.9824449779        3.1156554040        5.4656735095
 O         -1.6978743255       -5.4875111461        3.7626968741
 H         -0.8439147869       -5.3068010033        4.1906719839
 H         -1.8668597071       -4.6550389541        3.2558779713
 O         -0.6204976178       -0.7186844611       -3.4015200409
 H         -1.3860324860       -1.3212669599       -3.4669876089
 H         -0.8958117068        0.0146421558       -2.8307148034
 O          9.2351970696       -1.3727721509       -0.1200528942
 H          8.2683894795       -1.3871204848       -0.3238078780
 H          9.4954340360       -2.2997102064       -0.2075384283
 O          2.3671945400        3.4110439401       -5.6104982405
 H          3.2536945398        3.7258999944       -5.8095970030
 H          2.4738885138        2.4426478348       -5.4860134799
 O          5.1575860008        4.2658882180        2.1972930269
 H          6.1343688108        4.4421031234        2.2752643008
 H          4.7918831409        5.0532669193        1.7182460737
 O          3.9348351103        1.6559617330        6.2961738128
 H          4.5512827494        1.8363388918        5.5644466031
 H          3.1552683304        2.2026549904        6.0802262407
 O         -3.9271715877        3.2737691423       -0.0348041688
 H         -3.7648637170        3.7963603390       -0.8354308412
 H         -4.6124826228        3.7529822266        0.4641727296
 O         -5.6821564788        1.6258192153       -2.7417129997
 H         -5.6857333783        1.2253584061       -3.6440938997
 H         -4.7485075961        1.8932997558       -2.5907332610
 O          0.1513077450       -0.0527241126        5.7410762081
 H         -0.0766282316        0.8826422636        5.8407863154
 H          1.0409583853       -0.1616466305        6.0874523585
 O         -4.2178700093       -2.7544865569       -1.4982703359
 H         -4.1228803578       -3.0008796891       -0.5531343823
 H         -4.8455902216       -2.0161703895       -1.5586817575
 O         -6.1837636242       -0.8500106479       -1.6694243781
 H         -6.6757532807       -1.3396996754       -2.3862896023
 H         -5.9269973756        0.0242375457       -2.0224218938
 O          9.0453241611        1.5026209207       -0.4351456620
 H          9.3613761930        0.5944445066       -0.5020396745
 H          8.7553405126        1.6175981955        0.4952506168
 O         -2.4237560659       -0.4908150970       -6.8224332260
 H         -2.4431693376        0.2264595119       -6.1295296418
 H         -2.7581776684       -0.1017638153       -7.6298223533
 O          6.6798799065       -1.3569928800       -0.8741305704
 H          6.9675100043       -1.0511085547       -1.7647349034
 H          6.3903261996       -0.5726043565       -0.3645039996
 O          1.6620779633       -2.6278102834       -5.0591885491
 H          1.1598329389       -3.4513649587       -5.0219787789
 H          1.1419504092       -1.9828442413       -5.5806102157
 O          4.3383038981        0.0170408983        2.7694042433
 H          4.6142391507       -0.6796844528        3.3811273922
 H          4.5436281998        0.8506900031        3.2286187546
 O         -5.6901606427        4.6844787567        1.4973817404
 H         -6.4587772082        4.6204273875        0.9105823284
 H         -5.9553742293        4.2081409005        2.3057492572
 O          0.0964654045        6.8583092445       -3.2599031529
 H         -0.6171076495        6.1919067936       -3.3706049621
 H         -0.1265578517        7.6032258915       -3.8162491684
 O         -4.1935188917       -6.5370009351        2.9098710711
 H         -4.7606625603       -5.7944073213        3.1746582366
 H         -3.3361928791       -6.3923635515        3.3315591368
 O         -3.6644048263        0.2921805399        4.1445520767
 H         -3.5366941859        1.0972053622        3.5971238578
 H         -4.6303816605        0.2619563894        4.2999025025
 O          2.9884639785        5.0357633431        3.9450920542
 H          2.4955245756        5.6190031768        3.3478176543
 H          3.8034145206        4.8013334136        3.4829157865
 O          4.0920497139        6.1618354823        0.7619760552
 H          3.1759607042        6.3307611172        1.0139900281
 H          4.1209762331        5.9509577725       -0.1855470778
 O         -5.8377884602        0.4787388202       -5.1160526559
 H         -5.4323870905       -0.3914797717       -5.2242876113
 H         -6.8128566643        0.3455952585       -5.0578564562
 O         -3.8469368137        5.3605557837       -1.8811927496
 H         -4.6210935583        5.1004499195       -2.4069423077
 H         -3.1000792355        5.3499099562       -2.4941843357
 O          2.1181602142        4.8797895605       -3.2774120304
 H          1.5199060371        5.6309252004       -3.3691799329
 H          2.1471880548        4.4097123682       -4.1272785752
 O          4.3754128005       -2.9147251324       -5.1956164698
 H          4.5331017749       -3.6710551319       -4.6228218995
 H          3.4087818779       -2.8372728998       -5.2799532425
 O          7.2986017884        0.3699582458        4.7429433602
 H          7.8006163992        0.5354518535        5.5395310630
 H          6.6217677014       -0.2936287587        4.9611874706
 O          6.7736955960        4.4249504119       -3.0542129283
 H          7.4046617818        4.9311454331       -2.5325961563
 H          6.9730427481        3.4848629633       -2.8324507232
 O         -3.2497346739        5.9901462122        0.7731527499
 H         -3.3941507818        5.9476210168       -0.1850267316
 H         -4.1116293114        5.8016729221        1.1702949647
 O         -6.1861630133        1.5111918487        1.2299089679
 H         -6.8915380685        0.9378751873        1.5821831304
 H         -5.6827361061        1.0147173885        0.5610903690
 O         -5.8766737717       -1.5873865991        0.9033970313
 H         -5.9302685351       -1.2217246518        0.0059968611
 H         -4.9367165617       -1.5159538543        1.1797348820
 O         -5.8938467813        4.2495970932       -3.3938439905
 H         -6.7888162922        4.5870871340       -3.4233489791
 H         -5.9403549720        3.3367257885       -3.0398987125
 O          7.1849637265       -3.8227838119       -2.2453801556
 H          7.3326224978       -3.0076969090       -2.7337682456
 H          7.9313403155       -3.9036299688       -1.6279566354
 O          8.0916366333        4.2478435775       -0.5162056922
 H          7.2183937242        3.8023864893       -0.5149332395
 H          8.7454087599        3.5469609122       -0.5966920336
 O          1.4581957734        6.2028564432        1.8833027714
 H          1.2541443936        5.2336416880        1.8558390584
 H          0.6231928467        6.6229806712        2.1648159024
 O          0.4226515495       -4.9176444661       -4.1050478000
 H          0.7339751527       -5.5910661923       -3.4568504949
 H         -0.5154064505       -5.1277769802       -4.2088128426
 O         -1.4617220493       -6.8370262359       -0.7446990591
 H         -0.9723232667       -6.9226278268        0.1015145126
 H         -2.3961797539       -6.8153680212       -0.4584469387
 O         -8.3278712421        1.8339662640       -1.9757393496
 H         -7.4015829769        1.7393244691       -2.2495094521
 H         -8.3002949537        2.5203465918       -1.2818702683
 O         -4.5107463049        2.8892387505       -5.5201511647
 H         -5.1369644303        2.1552295778       -5.6037928660
 H         -4.8874434460        3.5076174984       -4.8789356822
 O          0.6741217714       -4.2354672501        4.1683934242
 H          0.7947283851       -3.4202122871        4.6550997801
 H          0.6824236469       -3.9853467470        3.2236472354
 O          5.3794943887        2.1432883791        4.0337164543
 H          6.2583893554        1.7361511051        4.1374460209
 H          5.4821136192        2.9786103463        3.5635236980
 O         -4.1064157350       -1.8488358980       -5.1553516458
 H         -3.5742623942       -1.4872787896       -5.8864984191
 H         -3.4558200248       -2.3289848319       -4.5972139028
 O          7.2719111938        1.8558535853       -2.4243809479
 H          7.9179495629        1.7784911978       -1.6915659502
 H          6.4202592811        1.5431095183       -2.0715801934
 O          9.4258483873       -0.6856171273        2.4026116740
 H          9.4541996922       -0.9056520586        1.4340413135
 H         10.2013930226       -1.0739864154        2.8043213728
 O         -0.2669443400        2.9382020251       -4.8899128520
 H          0.1933302855        2.4924883775       -4.1356650584
 H          0.4426725722        3.2153995112       -5.4793639791
 O         -6.3145456088        0.4644434040        4.4552149175
 H         -6.6251060119       -0.3820887932        4.0435240535
 H         -6.6185289854        0.4550731330        5.3629119297
 O         -6.7671986508        3.1804794954        3.5719124094
 H         -6.5540612043        2.2559697463        3.7695566292
 H         -7.6765624596        3.1695094878        3.2385099458
 O         -4.7563549201       -4.9945333633       -2.8416156021
 H         -5.3257463703       -5.5104960767       -2.2492869011
 H         -4.5753783545       -4.1607938964       -2.3519385915
 O         -6.3293086491       -6.0466092309       -0.8646641445
 H         -6.5771210019       -5.2780660145       -0.3016266121
 H         -7.1365837461       -6.5260996374       -1.0491241736
 O         -6.9824005559       -4.0279039941        0.7675132395
 H         -6.4693589166       -3.1896226567        0.7510855821
 H         -6.9001697680       -4.3529052909        1.6689347004
 O         -8.3772659324        0.1871324185       -4.4543727193
 H         -8.6649446149        0.7581227705       -3.7343719310
 H         -8.3164102235       -0.7164931950       -4.0931387911
 O         -7.6261515780       -2.1703086070       -3.3416203016
 H         -8.1531529151       -2.7067448971       -2.7171013982
 H         -7.1465475517       -2.7970546988       -3.9419463590
 O         -5.4190020736       -4.0052353762        3.2745119954
 H         -4.8090096373       -3.9187723478        4.0395348291
 H         -4.8910127653       -3.7805186891        2.4801366659
 O         -8.8545595660       -3.2132288382       -1.1795539834
 H         -9.1402030235       -2.3379846887       -0.8867851543
 H         -8.2945592567       -3.5637022329       -0.4724675512
 O          5.4023352846       -4.0806810966        4.1102463351
 H          6.0860937115       -4.3399539306        3.4777847399
 H          4.5704946984       -3.9831091849        3.5992103388
 O         -8.4538252991        0.2062942706        1.9517601180
 H         -8.6338721839       -0.0999034163        1.0283379407
 H         -8.3812557180       -0.5771195523        2.5063171806
 O         -3.2391268673        1.9971018017        6.3247450901
 H         -3.7201275958        2.7438027906        5.9255080973
 H         -3.3596192058        1.2516218038        5.7158257230
 O         -7.0192386874       -1.7949160139        3.2910416921
 H         -6.5884033883       -2.6254428746        3.5669197203
 H         -6.6651880956       -1.6529149801        2.3904450460
 O         -4.3289266637        3.9014539478        4.6807686128
 H         -5.2691598730        4.0991020832        4.6926007227
 H         -4.1993061564        3.3487018451        3.8763445228
 O         -8.6628215919       -0.4427333479       -0.5840631167
 H         -8.8283887300        0.3811130506       -1.0844746424
 H         -7.7603119851       -0.6923423716       -0.8617024186
 O         -7.7451352057        3.4109325768        0.1516286766
 H         -8.4537174719        3.4125412623        0.8092518660
 H         -7.1153910620        2.7290665715        0.4809821117
 O          4.3092458939       -2.1693951226       -1.9673238365
 H          4.3182742651       -3.0043905892       -2.4565608954
 H          5.1947647298       -2.0213782038       -1.5779616889
 O          5.1405722424        3.3974961702       -4.9745495350
 H          5.6499522685        2.6383488228       -5.2639315091
 H          5.7491982041        3.9463965432       -4.4535336852
 O         -9.2532855949        2.7388876303        2.3878786626
 H         -9.0556704025        1.7868117353        2.2666425934
 H        -10.1497601233        2.8025357792        2.7155510525
 O         -6.1181200404       -3.7149847318       -4.8202991716
 H         -5.4395192396       -3.1007013240       -5.1397333199
 H         -5.6586562758       -4.3149693384       -4.2029883654
 O          1.0653607365       -6.4995650887       -2.0960211360
 H          1.7072046332       -6.2332918706       -1.4119017013
 H          0.2883320799       -6.8442075409       -1.6437264402
 O         -3.5812713238       -3.9416649737        5.2162095544
 H         -3.0502742703       -3.1382306293        5.3247000642
 H         -2.9564329426       -4.6411942276        4.9744135274
 O          2.6131221533        0.7329828343       -5.3372092222
 H          2.5134162352        0.3205427413       -4.4530992956
 H          1.8830415643        0.3677972862       -5.8552209367
 O          3.0930877021       -0.7693384840        6.3643259726
 H          3.4282588413        0.1831563694        6.3483474912
 H          3.1237310222       -1.0504681795        7.2783245341
 O          5.4743886026       -4.3996695699       -0.2589105784
 H          5.9940856765       -4.2768102788       -1.0787032730
 H          4.6993995429       -4.9559903839       -0.4437585213
 O          7.2180246317       -4.2717795934        1.8081393745
 H          6.5307927707       -4.4346082544        1.1360760319
 H          7.1648560382       -3.3169507339        2.0223375987
 O          6.9357189466       -1.6822955559        2.4812226151
 H          7.8117293518       -1.2538876628        2.5107101355
 H          6.5495742592       -1.5663628627        3.3547685231
 O          9.0497223411       -4.1283761715       -0.1572999623
 H          8.4382006609       -4.2267635393        0.6134272999
 H          9.5703985391       -4.9300756346       -0.1960525094
 O          5.3215277740       -1.5549345605        4.8600510366
 H          5.3765793002       -2.5334001841        4.7267621338
 H          4.5670496703       -1.3949329919        5.4506068323
