  609
      -1033.94976246
 O         -3.8091984861        6.0510535299        2.4345276047
 H         -4.3766348832        5.2514255502        2.4349063149
 H         -3.3603901743        6.0631726052        3.3095378355
 O          1.9897512974        4.1126178718       -2.8966717075
 H          2.0273604118        3.2956879342       -3.4349903473
 H          2.6021942631        4.7495186800       -3.2898292491
 O          2.8423724411       -0.4860917854       -6.6134166744
 H          3.5276133505       -0.7413166932       -7.2391121971
 H          3.3404461730       -0.1368616983       -5.8401030354
 O          1.2416163350        7.5000776947       -3.6539602063
 H          1.3190159515        7.9146127019       -2.7699238343
 H          2.0719499716        7.0115817575       -3.7701984354
 O          0.6052297806        3.2537892761        1.0516770681
 H         -0.3327790872        3.2032137012        1.3107422701
 H          1.1209640545        3.4144023078        1.8603810531
 O         -3.8299282544        0.0552863100       -1.3785698124
 H         -4.5410543849        0.1187781154       -0.7128899132
 H         -3.3976543742        0.9292394878       -1.3903649799
 O         -2.4917989529        5.7335571789        4.7176262414
 H         -1.8907269423        5.0544227218        4.3649687541
 H         -3.1865913181        5.2453593531        5.1913506462
 O         -2.8218100738       -2.2496220467       -0.1828625004
 H         -3.2552670373       -3.0210852518       -0.5883170401
 H         -3.1736059868       -1.4518601149       -0.6073131301
 O         -1.3376782208        0.9246161397       -0.1059542754
 H         -0.5751881878        0.7262245229        0.5228977620
 H         -0.9092686116        1.3456108626       -0.8875964982
 O          5.7033243143       -4.5988609662       -0.5468766728
 H          6.1952840088       -5.1351962711       -1.1962549246
 H          4.9539531900       -4.2595973115       -1.0670791459
 O         -5.6252662947       -2.7836760811       -5.1947059771
 H         -6.3104899661       -2.0985757039       -5.2095814133
 H         -5.0480398613       -2.5704355905       -4.4418216832
 O         -2.7676065700        2.4835015342       -1.9087718819
 H         -2.2136648254        3.2168104903       -1.5845909050
 H         -3.5826057460        2.8507409860       -2.3009470797
 O          0.0972032403        1.5848911564       -2.1570056371
 H          0.9591302588        1.8165305936       -1.7703504983
 H         -0.1585181537        2.3206433418       -2.7402996685
 O          0.2829845950        4.1350232654        6.3285513600
 H          0.0806323568        4.1789367188        5.3718188920
 H          1.1271072108        3.6565846028        6.3872727620
 O         -0.5802256425        0.5238286534        6.3765754483
 H         -1.0012883716       -0.1561552962        5.8057849560
 H         -1.1709492408        1.3101681539        6.3796290666
 O          4.3890047973        0.8435069443       -4.8852549794
 H          5.0439044336        1.1955567740       -5.5164433064
 H          4.9176512624        0.3694706945       -4.2146350985
 O          4.0965049182        4.8373583802       -0.9564956586
 H          4.3410918682        4.1240664814       -1.5787390715
 H          4.5606481359        5.6360379390       -1.2485432940
 O          7.3194239854        5.1536655866       -2.9479204463
 H          8.1990939977        4.7533731170       -2.8614236829
 H          6.8594857404        4.6630042512       -3.6469313631
 O          5.1742902069       -1.1800780602       -0.3664943638
 H          4.6304180184       -1.9240998638       -0.0395094834
 H          6.0481792842       -1.5448179853       -0.5796463733
 O         -1.4052499143       -0.9118957679       -2.1754236068
 H         -1.4872221329       -0.3597581246       -1.3776370792
 H         -0.4972746694       -0.7954674201       -2.5183324534
 O          3.5596463449       -4.4954315151        3.0405865332
 H          2.6722378473       -4.6563170625        2.6734881393
 H          4.1523630655       -5.1402546298        2.6123532711
 O          2.0015103625        1.7439228248       -4.0880747643
 H          1.3714234647        1.8388335287       -4.8241264259
 H          2.8788460776        1.5126320103       -4.4360395162
 O         -1.3252345729       -1.7149208415       -4.9272855386
 H         -1.3127776585       -2.4598216445       -4.3039693322
 H         -2.1559204528       -1.7973227412       -5.4391581945
 O          2.7029624510       -4.3074636433       -6.5219629417
 H          2.3705596091       -4.5037016253       -7.3958518407
 H          1.9276118838       -4.0195701678       -5.9754593263
 O         -1.6682889520       -1.4311300960        4.9211614025
 H         -2.5802876680       -1.1505467886        4.6903740461
 H         -1.1959964215       -1.4259461149        4.0750867352
 O         -7.1773150043        1.8287299392       -2.0646325627
 H         -6.4561586987        2.0177187816       -1.4261614071
 H         -7.3626542506        0.8787880557       -1.9895519581
 O          5.4868984807        2.3459934411        3.4824992524
 H          5.9950173473        1.8879235651        4.1717747670
 H          5.5836274034        1.8251830295        2.6678413361
 O          3.9128903291        0.5073034826       -2.0091565986
 H          3.2773028818        1.0434582596       -1.5101215545
 H          4.4425068368       -0.0059437228       -1.3687303064
 O          2.5436109968        7.7685989279        1.5177311320
 H          2.1944654996        8.1386332815        0.6904565610
 H          3.4334560359        7.4370879609        1.3075965449
 O         -3.2220862265       -3.8614039264        5.9358299044
 H         -3.8812672868       -4.5903252309        5.8412855819
 H         -3.7122601931       -3.0988948468        6.2514267022
 O          4.1694144855       -3.9250587031       -2.6504164241
 H          3.8179267988       -4.6677395892       -3.1771279172
 H          3.6620998716       -3.1264112125       -2.8912544952
 O          5.0011358051        1.1234663757        1.0914898972
 H          5.6537015809        1.6247082063        0.5578099999
 H          5.0509419572        0.2161961535        0.7517808352
 O        -10.4839582387       -0.3284631580       -2.9914273933
 H         -9.5455197477       -0.4092318724       -2.7337675565
 H        -10.5529399463        0.5188544847       -3.4881097625
 O         -5.1824262803        0.3216290639       -3.6223005402
 H         -4.6605439097        0.1265556098       -2.8050050885
 H         -4.6218101591        0.1570388343       -4.3851372243
 O         -5.7252007266       -0.5399369136        0.3965367929
 H         -5.8479080979       -1.2894004053       -0.2208956604
 H         -5.3261353505       -0.9233953378        1.1872537254
 O         -2.1227600162        3.1099281416        1.2251663033
 H         -2.6548169461        3.6931716351        0.6634954498
 H         -2.0090697119        2.2740605810        0.7254906922
 O          0.6535081858        1.6838723860        4.1745179778
 H          1.5846694173        1.4187144718        3.9961553855
 H          0.4384115239        1.3836063288        5.0732330664
 O         -7.7501897305        6.5110695246        2.9055181315
 H         -7.1349111397        6.9717795804        2.3183230664
 H         -8.4124079049        6.0961637069        2.3440619899
 O          7.4480397848        4.3112831312        3.5216669687
 H          6.8302897908        5.0190692067        3.7336702462
 H          6.8732257341        3.5550746881        3.2856285088
 O          7.5237288040       -1.3094134282        5.6842365372
 H          7.8555148454       -1.7621508724        6.4581686003
 H          6.8457565949       -1.8955507072        5.2796224951
 O         -1.1652741954        3.8273716603       -6.8116701704
 H         -1.9431667454        4.1007304455       -6.2986321933
 H         -0.7943057157        3.0624230046       -6.3193971492
 O         -1.7413029256        0.7774428880        3.5330518052
 H         -2.2586479665        1.5824998161        3.7026840195
 H         -0.8140953535        1.0410279295        3.6278156953
 O         -0.7056332773        3.7148888835       -3.6351191576
 H          0.0058957030        4.1327461004       -4.1496827615
 H         -0.7952768542        4.2514003536       -2.8256911550
 O         -5.5943986227       -5.1562065712       -3.0379500571
 H         -4.9673541971       -5.0425387856       -3.7764662372
 H         -5.6196216718       -6.0918198917       -2.8305194955
 O          5.5388768580       -1.0016075302       -7.4431313867
 H          6.1569939777       -1.4653946217       -8.0060201460
 H          5.3221252166       -1.6216822310       -6.7026827502
 O         -3.0190916840        4.3558492775       -4.7813637291
 H         -2.1841930706        4.1118308181       -4.3163603865
 H         -3.6843741929        3.7237956559       -4.4505973740
 O          5.1174861307        6.7352141246        1.1912722566
 H          5.6722552495        6.1171231703        0.6886272176
 H          5.1670501118        6.4193404819        2.1059793431
 O          3.3003260460       -1.6000919329       -3.5807186887
 H          2.3454453518       -1.4044876348       -3.6545560379
 H          3.6543742994       -0.8456739394       -3.0752803562
 O         -1.7220482108        6.1807995818        0.7902632869
 H         -2.4689806480        6.1662054159        1.4189969656
 H         -0.8993618423        6.1405931690        1.3205175992
 O         -3.8513348503       -2.7657114256        2.2482464103
 H         -3.1617562266       -3.3159849502        2.6714260991
 H         -3.4129703911       -2.3100000169        1.5003960993
 O         -0.1530583095       -2.1883814324        2.6845094058
 H         -0.7293611405       -2.9428671753        2.9023455522
 H          0.5729607361       -2.1810455752        3.3351055471
 O          8.9164188363        5.2679464450        1.4951987496
 H          8.1806552146        5.3455868258        0.8531125239
 H          8.4916538314        4.8681634756        2.2837195623
 O          4.2028009111       -7.2135144564       -1.9598551304
 H          3.7491019787       -6.4561642970       -1.5303400023
 H          3.8655833772       -7.1941938092       -2.8634267578
 O          5.6901006714       -3.0618507451        4.6713282867
 H          5.1033628743       -3.3619427895        5.3688240322
 H          5.0980790854       -2.6725014738        3.9840934812
 O         -3.8241574198       -2.2097690787       -3.2070538048
 H         -3.1299147101       -1.6109123350       -2.9061450112
 H         -4.4244240182       -2.3391555919       -2.4472329059
 O         -9.4951276089        2.9991022097       -1.3995562416
 H         -9.9921430216        2.2592999504       -1.0024758526
 H         -8.6057970617        2.6255310280       -1.5905090903
 O         -3.0986679454        3.0793628390        3.7068584966
 H         -2.6439998323        3.2940372802        2.8685415367
 H         -3.8998856763        2.6010213363        3.4442330633
 O          3.7841574199       -2.0212799647        7.0265544521
 H          3.3815788757       -2.8362006733        6.6902810463
 H          3.0625916287       -1.3875972368        7.1537984740
 O          2.6956591427       -5.3246157138       -0.7750007525
 H          3.0991925802       -4.6615799285       -0.1838834069
 H          2.1195231489       -5.8938604012       -0.2421641115
 O         -5.6507421425        2.5414677848       -6.1941116528
 H         -5.1823612368        3.3677486856       -6.0687674792
 H         -4.9791312357        1.8340623113       -6.1974235006
 O         -7.0264415029        0.5489758134        3.3929421018
 H         -7.7067513290        1.1784241322        3.1221245417
 H         -7.0590100891        0.4994373043        4.3705316737
 O         -1.3686130109       -3.5264685699       -2.7317309711
 H         -0.4403034900       -3.7732076067       -2.5738097516
 H         -1.4668455981       -2.6558395001       -2.3073228967
 O         -4.8679880202        1.5480539800        2.2679749821
 H         -4.2099368881        0.8491668394        2.0010836725
 H         -5.6094342552        1.0881122187        2.7065286356
 O         -0.5368068039       -3.4698557808        6.2977617382
 H         -1.3775376600       -3.8377840858        6.5953719315
 H         -0.8036279568       -2.6608591543        5.8240292993
 O         -5.6464794410       -2.6341399841       -1.2692700775
 H         -5.6043907364       -3.2981733951       -0.5462372904
 H         -6.3640278859       -2.9063350754       -1.8655490116
 O         -5.2532548397       -1.5927628238        6.4963610652
 H         -4.5184385783       -1.0949547800        6.9256868491
 H         -6.0221614053       -1.0224190643        6.6169220637
 O          3.9642782591       -1.7934353197        3.0033562422
 H          4.0968485535       -0.8466390460        2.8745097615
 H          3.1459896789       -1.8723479607        3.5347987833
 O          0.8403985823       -0.6884910700       -3.6031874715
 H          0.2144929830       -0.8474111268       -4.3217424486
 H          1.1077369750        0.2551555332       -3.6102975248
 O         -3.2776423848       -8.0832115562       -0.9147380401
 H         -4.1049166424       -7.5992772680       -0.7627656349
 H         -2.9200856577       -7.7445146008       -1.7552976174
 O          3.5892359372       -3.1651646018        0.6057117304
 H          3.8104379440       -3.1016711266        1.5523199781
 H          2.6702035730       -2.8512674855        0.5216424230
 O          7.5529859406       -2.5593822149       -1.0853236271
 H          7.6341237353       -3.3889501582       -0.5879817519
 H          7.1541800628       -2.7979472250       -1.9580659474
 O          7.7888545356        1.6105771196        2.0872965494
 H          8.4180158626        1.3935986675        1.3862850504
 H          7.3485944060        0.7802291779        2.3506773372
 O         -0.5038272918        4.1269337096        3.7317327986
 H         -0.0220342648        3.2797242707        3.7168019661
 H         -0.0374060256        4.7485713868        3.1499229862
 O          9.1958878300        2.3346340086        4.1658991673
 H          9.0430736159        3.2827465544        4.2274487110
 H          8.6689391035        2.0661853012        3.3587629565
 O         -1.7905299428       -6.7892852621        3.6592932177
 H         -2.7433734754       -6.9221041593        3.7625395506
 H         -1.5655626111       -7.2585509053        2.8409481437
 O         -8.2013690130        0.3356119769        0.8145501287
 H         -8.5676923571       -0.3129991616        1.4444720603
 H         -7.2420678875        0.1358987824        0.7434987499
 O          2.1912642073        3.8002954707        3.2721805422
 H          2.9278903184        3.7165478218        2.6346933166
 H          2.1799141228        4.7405104349        3.5345359342
 O          5.1647713499        3.6881799380        6.0201387059
 H          5.8813533987        3.0464966870        5.9665979363
 H          5.2067518057        4.2207245962        5.2099229767
 O         11.3691055928       -0.2185125096       -1.2416653976
 H         11.9395997610       -0.4784752402       -0.4838431939
 H         10.9869040820       -1.0419617941       -1.5776860928
 O         -3.6342306792        0.6882322245       -6.1038969441
 H         -3.0303633259        0.8506249442       -5.3452652415
 H         -3.1271220990        0.9598946355       -6.8978177162
 O         -5.2310505549        2.3009129429       -0.3522299525
 H         -4.7808076749        3.1612724517       -0.3567333046
 H         -5.1964412309        1.9606357175        0.5540833457
 O          0.8474119316        5.0651502688       -5.4596423730
 H          0.1781662343        4.8230255872       -6.1299018397
 H          0.7894735670        6.0074629123       -5.2860383497
 O          4.1227333703        3.7234774612        1.4924270994
 H          4.3012681841        2.7915298978        1.3044475872
 H          4.1343534547        4.1872538010        0.6349431864
 O         -7.3186520122        0.4156885712        6.0318887381
 H         -7.9372850217       -0.3507186843        5.9218388001
 H         -7.8812471591        1.2121954652        5.9627357486
 O        -10.0862035363       -3.8380944964        2.1934145433
 H        -10.7956394084       -4.1710033027        2.7414497203
 H        -10.2711588735       -4.1605123903        1.2715313492
 O          6.8779001793        5.0752465841       -0.2026604131
 H          7.0675010966        5.1553538145       -1.1496435173
 H          6.7523652629        4.1117166449       -0.0754685787
 O         -2.1667184402       -6.7540431788       -3.0263772478
 H         -1.6422148581       -6.3135711750       -2.3341487496
 H         -2.6158383031       -6.0440263913       -3.5231855849
 O          3.1317099636        0.9261119634        3.6020134346
 H          3.5313191106        0.4599312534        4.3578925770
 H          3.7594195792        1.6413022325        3.4124142252
 O         12.4123597265       -1.0059968938        1.0927249188
 H         11.8270210726       -1.7813042147        1.1506967641
 H         12.1708351083       -0.4341797463        1.8313544122
 O         -5.5817909401        4.0706149132        2.2255341323
 H         -6.1301412555        4.1705786462        3.0320227457
 H         -5.3046624301        3.1389106081        2.1905510256
 O          1.1085509164       -7.1180023197        0.6421947492
 H          1.0950786148       -6.4494796589        1.3641596959
 H          1.9436744410       -7.6297236798        0.7368787608
 O         -3.8529861748        4.6645931712       -0.3528713723
 H         -4.0851089571        5.3546628715        0.2722949548
 H         -3.8789631229        5.0832216274       -1.2376470757
 O         -4.2240423592        8.0722947957       -1.0729064323
 H         -3.2819371675        8.3069289570       -1.0031321814
 H         -4.2647553014        7.3792389369       -1.7467829708
 O        -10.3942930164        2.1597058267       -3.9155971602
 H        -10.2046399788        2.6281082968       -3.0841057451
 H         -9.5510685696        2.1321852698       -4.3992169157
 O          0.6489900113        5.8766163483        1.8881629079
 H          0.9274827108        5.4192327854        1.0733978091
 H          1.2237790472        6.6620141273        1.9113185771
 O          0.4184910721       -5.3961442299        4.7509227331
 H          0.0356610572       -4.6641805622        5.2934718610
 H         -0.2741080316       -6.0609527276        4.6597933761
 O          6.2741424020       -0.3464544513       -3.3931821721
 H          7.0209431552       -0.1060721071       -3.9865313092
 H          6.6114683546       -0.1793645796       -2.4951415686
 O          7.7671310407        0.2414844236       -1.1926122320
 H          8.0795055019       -0.2762323014       -0.4291169178
 H          8.5436922303        0.5503052619       -1.6894909177
 O          7.0643243155        1.4532798224        5.5720875883
 H          7.2257152697        0.5009209918        5.6585462369
 H          7.8953893138        1.8136611216        5.2004483954
 O          1.0505167229       -4.9784169570        2.2023180594
 H          0.7359135987       -5.1008285023        3.1255201172
 H          0.3861680362       -4.4531265337        1.7214675453
 O         -6.8648062755        4.5323770260        4.5049836243
 H         -6.1130690646        4.7141877653        5.0891391773
 H         -7.2033917881        5.3743431153        4.1418191991
 O          1.2793089994       -3.5610797586       -2.2676708653
 H          1.8257040106       -4.2923759821       -1.9246866224
 H          1.1492262664       -2.9918896717       -1.4969239907
 O         -2.0633593042        2.7186973781        6.2993618609
 H         -1.3136936760        3.3159120466        6.4702451004
 H         -2.3740134603        2.9073437620        5.3988039825
 O         -6.5132883265       -1.9890053435        2.6107866080
 H         -7.0626275901       -2.2723824032        1.8548928428
 H         -6.8192191179       -1.1026397889        2.8668637898
 O          9.9608096348        1.2953449612        0.4974904285
 H         10.4246873432        0.7417766550       -0.1593212109
 H         10.2002485661        2.2218629934        0.3256750568
 O         -2.0806013956        1.0216450274       -3.9833539215
 H         -2.2683844414        1.6708518785       -3.2658315855
 H         -1.8609007337        0.1992745266       -3.5094497437
 O          6.4979333712        1.4031842007       -6.4562665155
 H          6.1974863078        0.6555263355       -7.0008169149
 H          7.2650579763        1.0616825325       -5.9607223646
 O         -7.9235221689       -2.6568688751        0.3754352633
 H         -8.8653402742       -2.4026400570        0.4390201932
 H         -7.8983692407       -3.5660662059        0.0400956172
 O        -11.0624470298        0.8589802761        3.1508646063
 H        -11.2199600159        1.1336242832        4.0546998678
 H        -10.4088562387        1.4984741503        2.7757919900
 O         -4.2136429427        5.8305782815       -2.7592376714
 H         -3.7437674590        5.4326312033       -3.5157020860
 H         -5.1451998786        5.5859628239       -2.8539496069
 O         -4.4864808304       -6.5831973329        3.0357056423
 H         -4.0558118582       -6.0671715380        2.3230250261
 H         -5.2491488164       -7.0214132229        2.6363478574
 O         -6.7490655845        4.6938549946       -2.5064060751
 H         -6.7222408091        4.8116044282       -1.5307809618
 H         -7.6644710828        4.5161184500       -2.7250869537
 O          6.5012831231       -2.9793382840       -3.4076139971
 H          5.6451491491       -3.4178076796       -3.1880486407
 H          6.3010973893       -2.0306236354       -3.5544343308
 O          2.0633750069        0.0916874395        6.4213249792
 H          1.1248226646        0.1838832191        6.6572670894
 H          2.3775123801        1.0046450225        6.2708085523
 O         -5.7158653855        7.4241314222        1.0687165876
 H         -5.2539072202        7.8322143824        0.3076824517
 H         -5.0062262396        7.1243349342        1.6657511968
 O          5.4598081269        6.9887532819       -2.0413401890
 H          6.2597681074        6.5469223927       -2.3673623487
 H          5.6846962829        7.4776847317       -1.2465455799
 O         -6.8984232890       -7.3531125233        1.8830066430
 H         -7.5455994842       -7.9906221354        2.1798167456
 H         -7.2372094975       -6.4618606873        2.1199025532
 O         -8.1582812129       -0.6584077699       -1.6204988574
 H         -8.4178342671       -0.1955166721       -0.7963372491
 H         -7.8493605557       -1.5184690206       -1.3100615508
 O        -12.6910195723       -0.1633217181        1.1171744893
 H        -12.2414302781       -1.0093917888        0.9992539780
 H        -12.2911745836        0.2442985707        1.8991657546
 O         -1.0038656026        4.3500207445       -1.0570311505
 H         -0.3146412523        3.9587418879       -0.5058627256
 H         -1.3771832057        5.0771561277       -0.5259013297
 O          2.3219439778        2.4117866077       -0.8585484943
 H          1.7811581257        2.7349287547       -0.1181468338
 H          2.3908193123        3.1468909168       -1.4965114347
 O         -6.6442088975       -3.3571449507        4.8071408390
 H         -6.5058501964       -2.8447060456        3.9600285051
 H         -6.1179423026       -2.8997713775        5.4765316496
 O        -10.3788370895       -2.9642340794       -2.2593958229
 H         -9.4689155898       -3.1174664640       -2.5566647337
 H        -10.6632626500       -2.1578565375       -2.7178795467
 O         -4.7357313943        1.5238314875        5.4032280363
 H         -5.5957220050        1.2577514069        5.7475336158
 H         -4.4558361333        0.8182661572        4.7944110325
 O         -0.3387161504       -5.7508766249       -1.2319785945
 H          0.1376552865       -6.3998092633       -0.6969234705
 H         -0.5279154715       -5.0013083167       -0.6237613472
 O          6.5766548500        2.4852692867       -0.5365675477
 H          7.1285645596        1.7029783069       -0.7465552498
 H          6.0097012581        2.6337311860       -1.3217249723
 O         -4.8700345305        2.9837062323       -3.4247633072
 H         -5.6346144156        3.4827526549       -3.0879424667
 H         -5.1526448397        2.0539065325       -3.5306168904
 O         -7.8317045997        1.8057237418       -4.7264849510
 H         -7.4862372401        1.9173640563       -3.8231941935
 H         -7.1288229957        2.1053887840       -5.3286492162
 O          1.2664174709        8.1102052995       -0.9833913630
 H          0.3129801070        8.3127654041       -0.9210755373
 H          1.3306162452        7.1396050111       -0.8395999810
 O          8.4731906543       -1.1997188156        1.0592583453
 H          8.6819077124       -1.0222460738        1.9994334576
 H          7.6860833323       -1.7818894833        1.0920214149
 O          9.8913243791       -1.8120590433       -4.6978099144
 H         10.0622447071       -1.9391003264       -3.7502670514
 H          9.4303830474       -2.6267359275       -4.9784545718
 O          5.2351735709       -6.0634389485        1.6342329046
 H          5.3838936662       -5.5540206142        0.8032091081
 H          6.0205722836       -5.9321947906        2.1773907277
 O         10.6007813364        3.9095287833        0.1544731815
 H          9.9264981353        4.4153877515        0.7239948447
 H         11.4628855817        4.1775600056        0.4709217058
 O         -6.7158368373        5.1645332216        0.1139317888
 H         -6.4433418812        6.0822096014        0.3359526387
 H         -6.2748013993        4.6144189096        0.7973419614
 O        -10.8011796707        0.7709484276       -0.5819917522
 H        -11.6697200933        0.7224856219       -0.1485677847
 H        -10.8990236293        0.4088293443       -1.4916249528
 O         -7.6156326411       -4.8632457080        2.5729369648
 H         -8.4960532580       -4.4668292909        2.4137471021
 H         -7.3233226268       -4.5377163930        3.4319897566
 O          4.9396607467        5.3247652855        3.6424343408
 H          4.1040900510        5.7189566231        3.9392938418
 H          4.7159997006        4.6243370485        3.0011800493
 O          2.4440970907        6.3961002997        4.0604842518
 H          2.4923239184        7.0887317760        3.3910494544
 H          1.6694533667        6.6089590564        4.6224847564
 O         -7.4219922623       -0.8722421627       -4.3985522998
 H         -7.9186048332       -0.1052936342       -4.7227450790
 H         -6.6382803652       -0.4599948574       -3.9748502975
 O          9.7403594272       -3.8227118035        3.3584667079
 H          9.6005050492       -2.8700161728        3.5361431222
 H         10.3021241651       -3.8424393141        2.5784293900
 O         -1.9330048080       -4.0773442241        3.5425416141
 H         -2.3057508180       -3.8968781640        4.4279688353
 H         -1.8703071641       -5.0495243949        3.4787520036
 O        -10.4537958175       -1.7922594811        0.2123422304
 H        -10.5614016063       -2.2224892007       -0.6546727986
 H        -10.4022077803       -0.8340381653        0.0204302704
 O         -3.1086846583       -0.1937785156        1.5566686541
 H         -2.5520323907       -0.0043587310        2.3403792555
 H         -2.5934514173        0.1291946893        0.8043621852
 O          4.8091092169       -0.2474583850        5.3214507455
 H          4.5156460028       -0.9494243104        5.9393672822
 H          5.1747378965        0.4596589549        5.8566164111
 O          6.5039268260       -0.5115054458        3.0868490330
 H          6.2615904293       -1.3017241753        2.5876396723
 H          5.9388321093       -0.4722916370        3.8708530275
 O          2.6499944666        2.7517571184        5.8471318948
 H          2.4969663904        3.0257759627        4.9222334197
 H          3.5390986624        3.0936443840        6.0644168847
 O          3.1338231971       -5.9179052870       -4.1745505214
 H          3.3034078153       -5.6088183588       -5.0723788424
 H          2.1760284361       -6.0507098463       -4.0920855278
 O          6.3912097396       -2.8510730676        1.5299569231
 H          6.0277433168       -3.3625849947        0.7911755338
 H          6.7098605311       -3.5152760966        2.1661947985
 O         -1.5296928253       -7.8140177314        1.0940437536
 H         -2.0724004832       -8.1388273281        0.3448929198
 H         -0.6021022123       -7.7842861339        0.8124668970
 O         -9.3535160954       -1.2088173509        2.7599837524
 H         -9.7175002502       -2.0472398442        2.4311409043
 H        -10.0914972629       -0.5826591905        2.8740637075
 O          8.3878264789        0.3317887832       -4.8341415878
 H          8.8655660482        0.8602750799       -4.1734105647
 H          8.9382613751       -0.4852746861       -4.9245103413
 O          7.2564348331       -4.7894894629        3.1910877273
 H          6.7230635530       -4.3578597594        3.8815965736
 H          8.1877960722       -4.5310221029        3.3675606113
 O          1.7686578557       -1.8793790003        4.5369835054
 H          1.8406000179       -1.1396563939        5.1705168024
 H          1.9802441802       -2.6991692571        5.0237714687
 O          9.7023166774        1.3984865529       -2.7137105972
 H          9.7709957926        2.3619493436       -2.6073709977
 H         10.5149456359        0.9901127432       -2.3844568610
 O         -9.1892212336        4.5221707105        0.8558395493
 H         -8.2868501404        4.8108947308        0.5989596440
 H         -9.5196124305        4.0936140298        0.0445132114
 O          8.4538838827       -4.0875605333       -4.8657556777
 H          7.7276114738       -3.6665103385       -4.3537992440
 H          8.9126638727       -4.6460563315       -4.2300471977
 O          5.9010578153       -5.1957253764       -5.2220001542
 H          6.8168861080       -5.0745952309       -5.4988394759
 H          5.4995022281       -4.3116484986       -5.2781749361
 O         11.0187469792        0.7479526901        2.9165955993
 H         10.6213295489        0.9396733958        2.0377273550
 H         10.6505104382        1.4251280709        3.5067639199
 O          8.4843264846       -4.7500402056        0.4415850525
 H          9.2439889659       -4.1802848518        0.6724043077
 H          8.1174417787       -5.0702252969        1.2688064499
 O          0.0986612845       -0.6185606028       -6.9668891117
 H          1.0512362894       -0.7794743041       -6.8827572983
 H         -0.3555275852       -1.2179197011       -6.3477609992
 O          4.9565054478        2.8884670999       -2.5914526701
 H          5.2804896141        3.0956643756       -3.4870206735
 H          4.5436219222        2.0021038593       -2.6075572951
 O         -4.5312926121        4.2533416588        5.9518642906
 H         -4.2559515516        4.2048026730        6.8680831789
 H         -4.4932919642        3.3350241781        5.6229359851
 O         -3.4275344352       -1.9921640473       -6.5438969725
 H         -4.2481013282       -2.4108985105       -6.2155152438
 H         -3.6185662024       -1.0386673759       -6.5916015996
 O         -1.9839081614        1.3987221366       -8.0775318098
 H         -1.2344857245        0.7950100283       -8.0636141366
 H         -1.6553023267        2.2974196053       -7.9213130727
 O          9.3073553324       -1.1877110689        3.5767068836
 H          9.9910302559       -0.4871020369        3.5284567668
 H          8.6799874794       -0.9935350859        4.2907811941
 O          9.9992177945       -2.5735979517       -2.0051917899
 H          9.0834458743       -2.3781456656       -1.6658667553
 H          9.9366569439       -3.5102627559       -2.2564962093
 O          0.1924007799        6.7646082969        5.5149036328
 H          0.2639359880        5.9930625630        6.1003337123
 H         -0.7068172053        6.7348179184        5.1662655242
 O          2.2399021166        2.0941516188       -7.3318947443
 H          2.4349591448        1.1547006743       -7.1598360467
 H          1.3142295341        2.2281463299       -7.1155958919
 O          2.8253127020       -4.1559585531        5.5409391025
 H          3.2025128343       -4.3241897519        4.6427450516
 H          2.0853445665       -4.7700476012        5.6100297576
 O         -0.1434085319        1.6533905345       -5.6632143457
 H         -0.8164213468        1.5002126804       -4.9584669164
 H         -0.1089065875        0.8179076166       -6.1835614957
 O         -3.4605487746       -4.5900613297       -1.3564631127
 H         -4.2433237371       -4.7417108769       -1.9109214875
 H         -2.7101445192       -4.3801966116       -1.9463752691
 O          9.8497877133        4.1162485077       -2.3846558818
 H         10.0741383920        4.0938409066       -1.4235768876
 H         10.5533068896        4.5953780145       -2.8224719205
 O          9.0635806385       -5.1788674109       -2.2404173377
 H          8.2064847872       -5.5622876886       -2.4990583787
 H          9.0373035322       -5.2238414203       -1.2743369335
 O         -7.8208962584       -5.0683630802       -0.9659370679
 H         -7.7238739882       -4.6583978577       -1.8332888362
 H         -7.0660229391       -5.6790683165       -0.8644318932
 O         -1.1469202386        6.4305835253       -3.1764738559
 H         -0.2599318269        6.7887829392       -3.4003897332
 H         -1.7470763332        6.6790138271       -3.8783522863
 O         -2.9572777626       -5.5548381972        1.0924464292
 H         -2.4599570181       -6.3967172103        1.0416947901
 H         -3.2533484629       -5.3360408939        0.1884806222
 O         -7.6466879922       -3.1792964688       -3.0809810927
 H         -7.0919921168       -3.7068321451       -3.6718062226
 H         -7.7013651422       -2.2939401177       -3.5076279664
 O         -5.5069957274       -4.2633412107        0.8598080066
 H         -6.2929482944       -4.3948601840        1.4126338030
 H         -4.8789875321       -3.7442070759        1.4186121467
 O         10.4336734470       -2.8908530694        0.6993023494
 H          9.7219435213       -2.2040276396        0.8411012594
 H         10.5737625642       -2.8841603352       -0.2619906160
 O         -8.7551235808       -1.6833967515        5.3547054213
 H         -8.9778705172       -1.4822287146        4.4227090135
 H         -8.1349685837       -2.4296772956        5.3038649604
 O         -3.3706280523        0.0568555958        7.3557852923
 H         -3.5876738480        0.8278850353        6.8048749763
 H         -2.4106623024       -0.0055447963        7.3720479317
 O         -4.1811434094       -0.8565612830        4.1267639511
 H         -4.1918471010       -1.4924266111        3.3803929526
 H         -4.6689282831       -1.2628149731        4.8604049209
 O          3.6091509135        6.1082564979       -3.8642764611
 H          4.2570033555        6.5260823431       -3.2786638291
 H          4.0661087304        5.7763787932       -4.6404820954
 O         -8.6599309595        2.5698897000        5.0951996627
 H         -8.0395168202        3.3185359270        5.0943892503
 H         -8.9360857073        2.5126784448        4.1695790459
 O          3.5768216463       -8.0832872677        0.6638119771
 H          4.1805360772       -7.4724174989        1.1155709355
 H          3.8514761657       -8.0760369117       -0.2641618688
 O         -1.4672968348        8.0712122680       -1.0339299892
 H         -1.5661628877        7.4531534559       -0.2788644515
 H         -1.4247910762        7.4861202002       -1.8168412771
 O          1.5397219455        5.4729688262       -0.6357431325
 H          1.2316187242        5.0990101432       -1.4730631893
 H          2.5021480899        5.3029697712       -0.6360345943
 O         -9.0193400493        2.3361276351        2.3128102987
 H         -9.1157820806        3.2129928988        1.8638990779
 H         -8.7480870000        1.7169810942        1.5971367360
 O          0.6875234865       -3.6954880456       -4.9590313431
 H          0.4964368877       -4.6010208370       -4.6310534756
 H          1.0023963709       -3.2369261714       -4.1654865749
 O         -1.7028623550       -4.2195387625       -6.4911439139
 H         -2.2057847153       -3.4677821980       -6.8315251841
 H         -0.9047148452       -3.8643233526       -6.0751274465
 O          3.3853662564        4.0323186415       -5.8430251712
 H          3.1496598275        3.3200567944       -6.4660077274
 H          2.5365341611        4.4575282570       -5.6387728492
 O          6.5155168557       -6.0238693048       -2.6977337554
 H          5.8139225537       -6.6444860399       -2.4243356478
 H          6.2457922670       -5.7228473691       -3.5909736771
 O          4.6675901157       -2.7060374999       -5.6140674265
 H          4.2167702904       -2.2381999328       -4.8799525937
 H          3.9703597207       -3.2287111696       -6.0493914003
 O          5.8847487584        3.7106493731       -4.9624842741
 H          6.2635666543        3.0363169152       -5.5431545082
 H          4.9903814218        3.8764480480       -5.3264909160
 O          0.4204850522       -6.0889567960       -3.8108418943
 H         -0.3684508797       -6.6092858391       -4.0114273521
 H          0.3277679028       -5.8730638099       -2.8607798593
 O         -5.1460340857       -5.5917242479        5.4435430026
 H         -4.9037768914       -5.9980546564        4.5895475621
 H         -5.8209647396       -4.9269330282        5.2385304402
 O        -10.4171820058       -4.9001314257       -0.1925723567
 H         -9.5105132699       -5.1526905981       -0.4408873970
 H        -10.7213790706       -4.3359946308       -0.9149859876
 O         -0.9328412123       -3.9550303941        0.6428443089
 H         -1.6613884942       -4.5087849937        1.0013577306
 H         -1.3819715452       -3.1530689528        0.3301058996
 O         -3.3328085730       -4.7077757278       -4.4013222123
 H         -3.2883977742       -3.8205989222       -4.0041421466
 H         -2.8138641420       -4.6580423848       -5.2288660360
 O         -5.6145153935       -6.5954165363       -0.4190060637
 H         -6.0326424081       -7.1118620396        0.2849658016
 H         -5.3423158339       -5.7587110699        0.0184891072
 O          0.6660141349        0.1038395126        1.4809456784
 H          1.2306777396        0.5841167825        2.0932050111
 H          0.3021416859       -0.6728930777        1.9452791697
 O          1.6914551063       -1.4492900722       -0.4988019737
 H          1.3457114530       -0.8298104402        0.1669556408
 H          2.1955922159       -0.9273074503       -1.1265693976
 O          1.3731414433       -3.1395016146       -8.6600252297
 H          0.4657784656       -3.4459945785       -8.6215042818
 H          1.3537392442       -2.1845722234       -8.5682755938
