  129
       -218.89375086
 O         -3.5851654158        2.4986749086        0.2619812927
 H         -4.2692224169        2.5243482784       -0.4236755762
 H         -3.9231188075        1.9543913557        1.0164070066
 O          1.0954392939        0.9385506562       -2.7297291178
 H          1.8466090229        0.3039918642       -2.6952721103
 H          0.4207635803        0.4212773396       -3.2216298588
 O          3.4066955014        2.4603190570       -3.5992407233
 H          3.9972108939        1.7271169785       -3.8810045367
 H          2.5424556317        2.0545242841       -3.4516710769
 O         -1.8554164139        0.9349334421       -1.1126680037
 H         -1.4697879655        1.6424772860       -1.6592078245
 H         -2.5382094569        1.3647511647       -0.5633020499
 O         -6.5781220449       -0.1939210818        1.0584099325
 H         -5.9394142541        0.2713610754        1.6138336006
 H         -6.6010758155       -1.1071656794        1.3988949874
 O          0.6901624601        1.6164739370       -0.0605833862
 H          1.4172983261        2.2548784307        0.0993299680
 H          0.7824280772        1.3414098278       -0.9940006043
 O         -0.7668574167        2.9372511648       -2.6686684448
 H         -0.4219294438        3.7230992778       -2.2152386569
 H          0.0122053011        2.4180343124       -2.9145082622
 O          2.1184597545       -1.8716353344        3.2258167064
 H          1.5502874640       -1.2494715458        2.7426695626
 H          1.5507358575       -2.6375571637        3.4156220877
 O          5.3762044030        3.4808822191        1.2925227280
 H          4.7229714816        4.1291985935        1.5656358868
 H          5.2894757621        3.3955314804        0.3292989766
 O          2.3242318832        3.6557468642        0.3380690361
 H          2.2272535387        3.7959356564        1.3090781414
 H          1.7548557596        4.2927801778       -0.1168468233
 O          2.0031117356        3.8133918536        2.9687007095
 H          2.2750870807        2.9776116410        3.3691149415
 H          1.0545005344        3.8920944048        3.1723252533
 O         -6.3644835784       -2.8362329691        1.7736129334
 H         -6.8438982515       -3.4306534340        1.1957937425
 H         -5.4270770806       -3.0946340426        1.7198589621
 O         -3.4394915532       -1.0120383961        0.4407647292
 H         -4.1245317668       -0.8624365586       -0.2395384847
 H         -3.5817970546       -1.9107660803        0.7895943750
 O         -3.7124797394       -3.4938439590        1.4850164703
 H         -3.2564991307       -3.5038934245        2.3470551306
 H         -3.1812407878       -4.0603976426        0.8956941524
 O         -1.7751897419        1.2863349220        3.6515438864
 H         -1.4922061604        2.2104849577        3.7192758125
 H         -1.0484946381        0.8341752272        3.2078751429
 O          2.8421582806       -1.0771362575       -2.6700874343
 H          2.2052658533       -1.8107223757       -2.7243129173
 H          2.9897548564       -0.8940957999       -1.7190662326
 O         -1.9256392668       -3.4722556109       -2.4030877510
 H         -0.9719870909       -3.3446410699       -2.5650550009
 H         -2.3358214069       -2.5893096881       -2.4433468405
 O         -2.9596983179       -0.8942927012       -2.6659945846
 H         -3.8982229104       -0.9433762185       -2.4392301252
 H         -2.5670098037       -0.2999210456       -1.9792270833
 O          0.1864453482        4.9616210763       -0.9721510026
 H         -0.3823401779        4.5033839802       -0.3080002489
 H         -0.1329769148        5.8594149069       -1.0540926403
 O         -2.2658037700       -3.4407228475        3.7882396879
 H         -2.3485092503       -2.6961639497        4.3854776820
 H         -1.3139622517       -3.6331784337        3.6825460268
 O          0.2980524625       -5.2208962474        1.1011138194
 H          0.9744351640       -4.9313414414        0.4633800658
 H         -0.5611240042       -5.1039800153        0.6586862425
 O          0.3868744805       -4.0233850550        3.4278405071
 H          0.6393457551       -4.7187379648        4.0369933221
 H          0.3558962409       -4.4573341590        2.5295153422
 O         -0.5100747572       -0.7821641308       -3.9971295172
 H         -0.0346027756       -1.6007226414       -3.8154442497
 H         -1.4163580200       -0.9169052356       -3.6901047889
 O          3.5436236635       -2.6808646872        1.0830638655
 H          4.4482637539       -2.2851087407        1.0846859138
 H          3.1560228169       -2.4769125036        1.9596615291
 O         -0.7386633893        3.8445788353        3.2754246445
 H         -0.9118506644        3.7095005807        2.3089240888
 H         -1.2318909078        4.6202757362        3.5414238378
 O         -5.3950144218       -0.3759075491       -1.3317615018
 H         -5.3370918539        0.5552164833       -1.6069748540
 H         -5.9847934498       -0.3575434335       -0.5438316939
 O          2.2977260898        1.0925554697        3.7189405432
 H          1.5144050504        0.8136696351        3.2214648488
 H          2.5919869347        0.3098558300        4.1937667588
 O         -2.1067408537       -4.8895714154       -0.2265459882
 H         -2.0530508819       -4.3237139353       -1.0485885920
 H         -2.4541763381       -5.7341946861       -0.5149258561
 O          5.9124593656        0.5020946133       -1.2456032913
 H          5.2950335592        1.2616087741       -1.1253402005
 H          6.7931543659        0.8754167978       -1.1972607221
 O          4.9271634491        0.2481125868       -3.8605672115
 H          5.4255772664        0.2792315440       -3.0279329273
 H          4.2101691815       -0.3783926006       -3.6821541837
 O          4.4185042802        2.7176927128       -1.1689932247
 H          4.1174075279        2.7372720986       -2.1103947801
 H          3.6247415792        2.9288723178       -0.6536082470
 O          2.2884406242       -4.3410989569       -0.6079974827
 H          2.7611056080       -3.7160112015       -0.0154100532
 H          2.9298780220       -5.0108173803       -0.8470455131
 O          4.1977163722        1.0781870210        1.7098731751
 H          3.5991038207        1.1724831347        2.4674869610
 H          4.6871344078        1.9200524096        1.6224070719
 O         -3.1213257259        1.8191912182       -3.7843180585
 H         -2.3004791262        2.2804210120       -3.5573371145
 H         -2.9457725436        0.8716298099       -3.6952189251
 O          2.7768603480       -0.3787505159       -0.0932845440
 H          3.0093734292       -1.2368729789        0.3125441095
 H          3.3014347597        0.2802552536        0.3943177444
 O         -1.1344347294        3.4130959383        0.7082463439
 H         -0.5859384844        2.6382177709        0.4364649229
 H         -2.0651998952        3.1637185653        0.5373342153
 O          0.7617042230       -2.9037087724       -2.4892313348
 H          1.2526508824       -3.5938485522       -2.0232962404
 H          0.4654066252       -2.2693780964       -1.7434899484
 O          5.6753536801       -1.1232983636        1.0037115697
 H          5.2722881353       -0.3723052073        1.4733427363
 H          5.8238734379       -0.7749664541        0.1087441284
 O         -4.1314530660        0.8263163208        2.2143619560
 H         -3.4112934175        0.9711607170        2.8512395540
 H         -3.8387887201        0.0744650560        1.6414861606
 O         -5.0532376346        2.2727690328       -2.0452238933
 H         -5.7623890286        2.7398713254       -2.4856654025
 H         -4.3315331630        2.1565048566       -2.7169956746
 O          0.2488866372       -0.0358674127        2.0463703627
 H         -0.3091730056       -0.7212287982        1.6601229459
 H          0.4611656173        0.5552787905        1.2906210174
 O          0.0932016825       -1.1665163093       -0.6059217572
 H         -0.5723376286       -0.4801553194       -0.7736037261
 H          0.9427979407       -0.7251691335       -0.4339761344
 O         -7.6691938765        2.3297142333        0.4354991679
 H         -8.0701430069        2.5570946196        1.2749964214
 H         -7.3946643781        1.4060230596        0.5174257195
