  116
       -193.00398764
 H          0.2268678816       -1.1629575357       -0.4608879617
 C          0.3784991993       -0.0965438126       -0.6484742258
 H          0.2126709759        0.4474106095        0.2816928755
 C         -0.6084972923        0.3858908457       -1.7180837392
 H         -0.3539851206       -0.0612098319       -2.6808961447
 H         -0.5340088500        1.4711956737       -1.8168118151
 N         -1.9905572407        0.0463677997       -1.4088890406
 H         -2.1084758912       -0.9585923861       -1.4475274084
 H         -2.1970293273        0.3304409353       -0.4545004413
 O          1.7208612180        0.1346129845       -1.0328422411
 H          1.8708773445       -0.4182213361       -1.8348517192
 O          3.9591205185       -0.8591842189       -4.1615829894
 H          3.0712464594       -1.1299953458       -3.8460329998
 H          4.0050137903       -1.0807480449       -5.0915681458
 O          1.6707356380       -0.0163048296        2.5498444346
 H          2.5420732369        0.0940359677        2.9676476869
 H          1.3989480752        0.8643064711        2.2301310609
 O          0.8636107977        2.4680182884        1.8036979964
 H          0.3939782368        2.8163008146        1.0203389932
 H          0.3569397041        2.7394533080        2.5859798090
 O          3.2229152163        3.2932107685        0.6493650931
 H          2.8759664789        3.3282245401       -0.2672246265
 H          2.4400909773        3.1694683272        1.2106341517
 O         -2.6868820753        3.1318899527       -1.3698885281
 H         -3.1093774673        2.6604624467       -2.1036566809
 H         -2.6396073015        2.4831911542       -0.6417478914
 O          6.4648333415       -1.9403722890       -0.6567092031
 H          6.0553470066       -2.0457716294        0.2212753770
 H          6.3981198842       -1.0011147149       -0.8854142155
 O          2.1054418255        2.7494220187       -1.7467810315
 H          1.8737555463        1.8400819138       -1.4740236123
 H          2.8648496344        2.6045741377       -2.3460225636
 O         -0.8756022884       -2.5149010775       -3.4552628978
 H         -0.8907546654       -3.3468933251       -3.9291331096
 H         -1.1588431623       -2.7206076698       -2.5382029530
 O         -0.4204488538       -1.4835320376        3.3968306877
 H         -1.0350634101       -0.7769588071        3.6724927242
 H          0.3903029954       -0.9948041705        3.1492571618
 O          4.2355850326        1.7198432765       -3.0703360650
 H          4.0960955392        0.8882194431       -3.5482138774
 H          4.9566260077        1.5131436286       -2.4546201721
 O          2.5041643456       -3.4135743980       -1.3326867609
 H          3.4187618474       -3.4430322641       -1.7167431502
 H          2.5864385175       -2.9064558847       -0.5047257031
 O         -4.3611280933        4.4390017288        0.4224475377
 H         -3.6621910697        4.7016018893        1.0345929599
 H         -3.8896585435        4.1476434199       -0.3778947787
 O          0.6062238292       -3.8218095605        2.4148645925
 H          0.1112203895       -3.0799574870        2.8080469436
 H          0.8781832602       -4.3857512276        3.1395414701
 O         -4.5733918405        0.2500991459        3.5190399820
 H         -4.6608191761       -0.5069190819        2.9248884157
 H         -4.8950465306        1.0102392601        3.0087543893
 O         -4.6420536519       -1.3783213000        1.1733267071
 H         -4.5982623747       -2.0327924045        0.4578249638
 H         -5.2551910538       -0.7013340905        0.8359283665
 O         -2.5067652124        1.7694390703        1.0296680015
 H         -2.2353511740        2.6681021238        1.3112973999
 H         -3.4762724796        1.7528219243        1.2129310731
 O          2.4012856845       -2.1890602691        1.0914814087
 H          2.1248116434       -1.3281479567        1.4568772825
 H          1.8609389047       -2.8488229836        1.5555878151
 O         -0.7731734409        3.0314400049        3.9482995116
 H         -0.6071037277        3.1719353926        4.8799032991
 H         -1.2558804825        2.1680878999        3.8716223261
 O          0.3159527844       -4.7445335273       -0.2915460972
 H          1.1201818426       -4.4231721811       -0.7378129216
 H          0.4357213487       -4.5523204454        0.6483769864
 O          3.9534217140        0.7971450390        0.5068525181
 H          3.2021880805        0.3856087448        0.0483351176
 H          3.7374838343        1.7692799956        0.5607425470
 O          4.8381942432       -3.0379204411       -2.4729062297
 H          4.7151134553       -2.2728808663       -3.0525489773
 H          5.5042060640       -2.7505907745       -1.8075498419
 O         -1.8753463143       -1.4493993632        1.0796682997
 H         -1.3947829223       -1.5577815237        1.9192573178
 H         -2.8217146721       -1.3708744909        1.2841961310
 O         -3.6249110422        1.1596051312       -3.1114401696
 H         -3.3039515473        1.0381905067       -4.0051276747
 H         -2.9658571551        0.6963985111       -2.4947372710
 O          4.3242315579        0.3161835693        3.0835144145
 H          4.7970246703        1.0603463584        3.4556939957
 H          4.2795417768        0.4689990068        2.1081626723
 O         -1.6628982646       -3.1426372465       -0.9475283135
 H         -0.9954565369       -3.8423024064       -0.7341543505
 H         -1.6537657479       -2.5395431936       -0.1666593596
 O          5.0845626517       -2.1300755449        1.7331418151
 H          4.1633457680       -2.2473022054        1.4429536156
 H          5.0544671078       -1.4296868481        2.3936840605
 O          6.0424722909        0.8267925419       -1.1187807350
 H          6.6869813903        1.4255183582       -0.7413090264
 H          5.2868236703        0.7793677995       -0.4860186519
 O         -1.9734604583        0.7240589014        3.4599377639
 H         -2.9175415848        0.5550647992        3.6893165074
 H         -2.0053999791        0.9122988690        2.4964286605
 O         -5.5426012564       -0.6139115145       -2.3177568658
 H         -5.0256956134       -1.3799169139       -2.0258246598
 H         -4.9118690316        0.0463731102       -2.6667827224
 O         -5.0835895100        2.1095118777        1.5186152046
 H         -5.6447096506        1.6107593300        0.9030050137
 H         -5.0205306700        3.0268020390        1.1679081376
 O         -1.8655835767        4.3119010457        1.7726823443
 H         -1.1486958029        4.4958297847        1.1518735434
 H         -1.4710321871        4.1153059750        2.6362360551
 O         -0.1395798401        3.7554413690       -0.3802341614
 H         -0.9576556967        3.6367099745       -0.8912226618
 H          0.5992261065        3.6244793547       -0.9934569449
 O         -4.3124344526       -2.9050249795       -1.1514616851
 H         -3.3440352078       -3.0754645985       -1.1278251580
 H         -4.7349095758       -3.7439199975       -1.3361706293
 O          1.6611840427       -1.6321369522       -3.0565515831
 H          1.9620439556       -2.3660136495       -2.4584882591
 H          0.7591646449       -1.8832622807       -3.3297741579
 O         -6.4294110868        0.3374503699       -0.0566259240
 H         -6.1337139896        0.0382350069       -0.9609371004
 H         -7.3794456492        0.2254956404       -0.0320013044
