  84
       -142.48607887
 O          1.5302739397        1.6217803215       -2.9860908743
 H          0.8323001125        2.2783898648       -2.8324828370
 H          2.3778238009        2.0585248648       -2.8425134594
 O          3.7952657822        3.5284141363        0.4698722398
 H          3.8810939055        4.4731741221        0.6060600230
 H          2.8459439801        3.2983416683        0.6216943691
 O          3.5755092852       -0.2067326793       -1.4411109720
 H          3.9011509439        0.6693834589       -1.7099782897
 H          3.9233799366       -0.3922494927       -0.5499317052
 O         -4.3078110537        1.0046085250       -0.3066213032
 H         -4.4334265399        0.0412969690       -0.1367464383
 H         -5.1800108484        1.4010807844       -0.3225648559
 O         -1.2668289573       -3.0531429934        2.3432513839
 H         -1.3768265691       -3.7195620327        1.6498145481
 H         -1.0460267009       -2.2376464004        1.8602267849
 O         -0.7915307963        3.8413149080        0.2341946567
 H         -0.8271418194        3.7139733591       -0.7318049383
 H         -1.4508728045        3.2415315414        0.6245621843
 O          1.1141744510       -3.5096359914       -0.4731599951
 H          1.3595855883       -2.9228859734        0.2592291262
 H          1.5060672226       -3.1314458892       -1.2765349638
 O          4.1009113987        2.4247096267       -1.9878168981
 H          4.8860367488        2.7623756006       -2.4205383253
 H          4.0513090706        2.8520555739       -1.1074528725
 O         -4.5944006921       -1.6016778149        0.1733869531
 H         -4.0726030993       -2.1331244290       -0.4935481345
 H         -5.4691610031       -1.9935077674        0.1890673640
 O          2.3150509663       -2.2532700593       -2.6419243042
 H          2.8562287101       -1.5322077170       -2.2609582717
 H          2.9050922755       -2.7996820997       -3.1629191305
 O         -3.2299979048       -2.9528131035       -1.5879958204
 H         -2.5576488514       -3.4817336061       -1.1200438954
 H         -2.7707712308       -2.4073070047       -2.2451737828
 O         -2.1147973286       -1.1322179947       -3.4550368009
 H         -1.1619186908       -1.0340134155       -3.6912347556
 H         -2.5654588796       -1.3293496884       -4.2786658109
 O         -2.7613877271        1.4404459050       -2.6180588232
 H         -3.3229137788        1.3365186016       -1.8346708454
 H         -2.5780046834        0.5421606362       -2.9445487505
 O          4.2662671984       -0.7074197765        1.1644267740
 H          5.0475063419       -1.1959270166        1.4256995499
 H          4.2919338767        0.1544521463        1.6628348194
 O         -3.5654642403       -1.7102265833        2.7721843844
 H         -2.8314036341       -2.3586647991        2.7283804320
 H         -3.9243819191       -1.6573278361        1.8714537289
 O         -2.2878811064        0.3725087467        3.6347346698
 H         -2.6001107545        0.5284016019        4.5267650399
 H         -2.8197943014       -0.4100923403        3.2963662410
 O          1.6804742070       -1.5012158224        1.3626838880
 H          2.6300565789       -1.3213013143        1.4814081048
 H          1.2027378810       -1.2792214919        2.1821309251
 O         -2.2492284426        1.7748671624        1.3018361809
 H         -2.4248897838        1.5600251362        2.2320511506
 H         -3.0587421428        1.5767071618        0.7957832558
 O         -1.3689406444       -4.3743927259       -0.1365014055
 H         -1.4019331240       -5.3255183873       -0.2458082570
 H         -0.4357733628       -4.1063933912       -0.3090876735
 O          4.1743095435        1.5619286636        2.4402143107
 H          4.2138904737        2.2948803281        1.8065734771
 H          3.3043990823        1.6032672477        2.8684605192
 O          0.1797836479       -0.8182397279        3.6089569771
 H         -0.0383435877       -1.7418552401        3.7737446937
 H         -0.6898285146       -0.3666477693        3.5479697488
 O          1.5595431798        1.5436054508        3.4785767609
 H          1.1467219247        0.6643581204        3.5533425509
 H          1.4386684675        1.9715959243        4.3276721751
 O          1.3668669868        2.6498737798        0.9743567859
 H          0.5608089562        3.1991884870        0.7444007820
 H          1.2839390304        2.3739050239        1.9021357006
 O          0.4607602853       -0.7398881403       -4.0260706779
 H          0.8758036320        0.1286754370       -3.9093393032
 H          1.0667237951       -1.3782035821       -3.6141810530
 O         -0.7639511316        3.1856188228       -2.4533452454
 H         -0.9437659704        3.8932385248       -3.0742386034
 H         -1.5073766466        2.5414447256       -2.5570290935
 O         -1.1868166871       -0.8454532564        0.8932481714
 H         -1.5068786783        0.0549077959        1.0336867183
 H         -0.4109186107       -0.7206781621        0.3221142262
 O          0.6084347640        0.3873543967       -0.6515591322
 H          1.0469110052        0.4884170225       -1.5025227057
 H          0.9422270799        1.0959967043       -0.0879807377
 O          5.9807450938       -1.5165287035       -1.9419639340
 H          5.1026155906       -1.0940732832       -1.9099940227
 H          6.1977132090       -1.7487276017       -1.0381818608
