  84
       -142.51143176
 O          2.2630782017       -2.3123128792       -2.1918862532
 H          2.5796628877       -1.4138714921       -2.4031253887
 H          1.4002394567       -2.3986681777       -2.6512470517
 O         -4.0530122380       -1.5079255843        1.2665142187
 H         -4.0744946112       -0.6622210700        0.7995332638
 H         -3.1569315085       -1.6050684790        1.6197407841
 O          1.4637534761        3.9781142126       -0.4112223500
 H          1.5414336546        3.4166526876       -1.2187816020
 H          1.5996437870        4.8841865781       -0.6897067298
 O          1.2350323279       -2.4973487109        2.1702030968
 H          2.1599183158       -2.4556870247        2.4995398969
 H          1.2916779973       -3.0382409801        1.3588334468
 O         -0.8818587896        3.1672994551        0.7843876964
 H         -0.5022510946        2.8503064679        1.6365701064
 H         -0.1283574704        3.5794821288        0.3295328214
 O          3.9244588136        0.9678151001        2.1659719897
 H          3.7199702235        1.9200483055        2.2377738972
 H          3.0428530512        0.5563154561        2.1136669424
 O         -0.3181893300       -2.5198059835       -2.9744910995
 H         -0.7268753483       -2.9064104149       -2.1885119273
 H         -0.7864922151       -1.6747364195       -3.1035950187
 O          4.3568163935       -2.1728022691       -0.1983384095
 H          3.7605161274       -2.3578727665       -0.9340565954
 H          4.6594664974       -1.2585329151       -0.3273391297
 O         -1.8283955695       -0.2487392146       -2.7896660518
 H         -1.6328261774       -0.0874524412       -1.8342130955
 H         -2.7545870336       -0.5277940939       -2.8269212908
 O         -3.2366801578        2.0271702666        1.8277267826
 H         -2.5498735034        2.6257562712        1.5037641007
 H         -3.5789914531        1.5653425574        1.0511413500
 O          0.2153135331        2.1057896400        2.9819549123
 H         -0.4968002089        1.6966231093        3.4937165667
 H          0.6541190076        1.3565053054        2.5319348656
 O         -1.3734972625       -1.5512790028        2.0806239416
 H         -0.5392515378       -1.9822359204        2.3222559186
 H         -1.5109706400       -0.8483202051        2.7432851806
 O         -1.2703005896       -3.2275869698       -0.3422670284
 H         -0.4182463323       -3.6762798141       -0.2314020993
 H         -1.3655182515       -2.6473408172        0.4239921477
 O          3.8458481782       -2.0850655843        2.4785015958
 H          4.0886010065       -2.2329653294        1.5424960557
 H          4.1474101348       -1.1966135024        2.6894073472
 O          3.2262505790        0.2482431153       -2.5193823216
 H          3.8824460614        0.4406090826       -1.8356042830
 H          2.6310380063        1.0132111358       -2.5478227660
 O         -0.9130932484        2.2387989094       -3.3395985127
 H         -1.1873697873        1.3022877896       -3.3559508183
 H         -1.5427144000        2.6580352125       -2.7200901774
 O          4.9366470981        0.5519043214       -0.2545629842
 H          5.8573259173        0.8139940346       -0.2447577258
 H          4.5846536802        0.7407318866        0.6545589691
 O          1.4290103514       -3.8500465090       -0.1735362237
 H          1.9993439829       -4.6192373637       -0.1814321454
 H          1.7596666250       -3.2602827889       -0.8911048992
 O          2.6581208904        3.3788966357        2.1214996030
 H          2.3283904736        3.6037375121        1.2394191137
 H          1.8783665531        3.1583428150        2.6465929574
 O         -2.0078373525        0.5802642073        3.6727909364
 H         -2.5868076463        0.4413159488        4.4224094524
 H         -2.5267762591        1.1057826753        3.0132590013
 O         -4.4076967975       -1.0797006453       -2.3667054418
 H         -4.2373245453       -1.9246080458       -1.8445220764
 H         -5.1224023739       -1.2775061476       -2.9714509869
 O          1.5614379258        2.5194628796       -2.6495615427
 H          0.5947044264        2.3697572448       -2.8915659478
 H          1.9440716953        2.9465463541       -3.4177613211
 O         -3.9866247429       -3.1470773624       -0.8762089932
 H         -4.1604542625       -2.7136301817       -0.0143121118
 H         -3.0449300425       -3.3764179770       -0.8506914845
 O         -2.6601323390        2.9791837541       -1.3895829431
 H         -2.0965669041        3.1732868189       -0.6282600541
 H         -3.1790746075        2.1967053029       -1.1553818461
 O         -4.3216280379        0.8047972810       -0.4811551033
 H         -5.2135080536        1.1571613743       -0.4580165357
 H         -4.3141639251        0.1359939055       -1.2061555694
 O          1.3409402945        0.1246981651        1.5277786290
 H          1.1397522658        0.1868478684        0.5883987168
 H          1.2721322247       -0.8270347403        1.7718186457
 O         -1.1011675556        0.3800963176       -0.1524976470
 H         -1.2077135589       -0.1543584394        0.6456609393
 H         -1.0213800221        1.3086201025        0.1101943141
 O         -6.8520289995        0.1329720000        0.2821480881
 H         -6.3694548512       -0.5027570069        0.8197146406
 H         -7.7845900510       -0.0672905717        0.3719530010
