  129
       -218.88792995
 O          0.8339555488        4.0316016845        3.2020838168
 H          1.6664585727        3.5399405783        3.2567278234
 H          0.6388857114        4.0729947560        2.2438847112
 O          4.5216011421       -2.2927886479        1.7292925703
 H          3.8924257973       -3.0068062829        1.5565055473
 H          4.8800112057       -2.0353141238        0.8689498190
 O          5.9267067236        0.8203525851        1.0976766978
 H          5.7877342858        0.1326736653        0.4265451833
 H          5.4201240335        0.5387028205        1.8658097806
 O         -1.7278174183       -1.6224578160        4.1175647818
 H         -1.4103917832       -0.8097361696        3.6660932603
 H         -1.2317444780       -1.6760711849        4.9357138540
 O         -3.4211355659        3.0888857535        1.8395641101
 H         -2.8364736004        3.0594114642        2.6096157355
 H         -3.0708824549        3.7831258721        1.2612882723
 O         -1.3538182649       -3.7974910693        2.4837556630
 H         -2.1316548505       -3.7938403299        1.9024440487
 H         -1.5538352840       -3.1307839341        3.1671264262
 O         -0.7158906976        0.6354815903        3.0509872579
 H         -0.5973808475        0.8118073071        2.0970027437
 H         -1.0714438381        1.4608874035        3.4300199192
 O          0.9379461914       -2.5976980515        1.8848135837
 H          1.5966358006       -3.2784139813        1.6916907588
 H          0.0886847646       -3.0590803324        2.0728816379
 O          5.6576964540        0.2157399034       -3.0059964209
 H          6.4806109132        0.2537174043       -3.4919183486
 H          5.4438000704        1.1482374057       -2.7345212787
 O          3.3265788380        2.7119642376        2.9855267262
 H          3.3731872466        1.7433091760        2.8780190761
 H          3.9433935173        2.9403687939        3.6817412863
 O         -0.0160205605       -4.8378410686        0.0210333290
 H          0.9293201541       -4.7021229725        0.1773892649
 H         -0.4442885219       -4.8467508861        0.8836905237
 O         -5.8670957058       -2.8018793305       -0.4149424006
 H         -6.6631008543       -3.3164122531       -0.5468669628
 H         -5.3858841555       -2.8039629878       -1.2862700210
 O         -4.9087017190        2.2931256379       -2.2230127412
 H         -5.6257418045        2.8451235300       -2.5357964409
 H         -5.0961264553        2.1262333719       -1.2699166315
 O         -1.8061878281       -3.2900660733       -1.4156105530
 H         -1.3869069993       -2.9895080794       -2.2434442617
 H         -1.1686293603       -3.9081428596       -1.0181128225
 O         -4.3702636387       -2.8746048738       -2.5799547214
 H         -4.2835752687       -1.9621945380       -2.9076850548
 H         -3.4951705005       -3.1079928860       -2.2329816435
 O          2.7400474526       -4.3663087500        0.7918509168
 H          3.1329168685       -5.2229278356        0.9605501487
 H          3.1267672424       -4.0498274803       -0.0846601243
 O          2.8260779836        0.4087633180       -0.0430581839
 H          2.0755079879       -0.2270393423       -0.1401107563
 H          3.0135527578        0.4519119203        0.9161079246
 O         -1.5142048371       -0.1425355568       -4.1962694260
 H         -1.0403751587        0.5797155190       -3.7523194936
 H         -2.4193092906       -0.1491225604       -3.8104013818
 O         -0.6918542612       -2.5585676575       -3.7938139056
 H         -0.9649013460       -3.0537593924       -4.5656876690
 H         -0.9720515735       -1.6098006048       -3.9581071597
 O          2.3986508764        4.3316243050       -0.8769061657
 H          2.3149870627        3.5980265131       -1.5116910213
 H          3.2105308358        4.1478805338       -0.3844364059
 O         -3.8769953796       -0.1980312553       -2.9695851563
 H         -3.6993527783       -0.2950977308       -1.9824328712
 H         -4.3556628482        0.6386933619       -3.0268810147
 O          0.8004746050       -1.1910552470       -0.3679687884
 H          1.0563737407       -1.6955846096       -1.1761284054
 H          0.8017524311       -1.7947817767        0.4041400060
 O          1.3899242253       -0.8098168982        3.8932025937
 H          0.6819833161       -0.1704639487        3.6904081108
 H          1.2361542209       -1.5465316314        3.2727140142
 O         -5.4480698590        1.9069089408        0.3578822336
 H         -5.8879800485        1.1472765367        0.7898068438
 H         -4.8497699197        2.3076650644        1.0083665014
 O         -6.2977913169       -0.4819802952        1.3479301546
 H         -5.6470468749       -0.7624791587        2.0121993332
 H         -6.3132686077       -1.1963891962        0.6978814695
 O         -1.4938293908        3.0546916858        3.9364463018
 H         -0.6219948939        3.4686930404        3.6996137750
 H         -1.6976483606        3.3363994560        4.8276972955
 O         -2.4434671193        3.5209458131       -2.3386541848
 H         -2.3786610393        3.9806149095       -1.4836683264
 H         -3.2975514376        3.0522948155       -2.3307465660
 O         -0.3633603029        2.1311368778       -3.1005890877
 H         -1.1369400436        2.6576101665       -2.7594418476
 H         -0.1324835469        2.5405686399       -3.9364480397
 O          3.4748945391        0.0357750599        2.5611791871
 H          3.9056759057       -0.8236583246        2.3608434668
 H          2.7121888910       -0.2253290367        3.1403456868
 O          4.5447316531        3.0804718509        0.4783199479
 H          4.0250091549        3.1333517468        1.2953498108
 H          5.1543858760        2.3319806759        0.6371953665
 O          1.6978856045       -2.2726249318       -2.5930740111
 H          2.1497893250       -1.5342085355       -3.0648666930
 H          0.9024470035       -2.4806903781       -3.1153830194
 O          2.9766947718       -0.2212016789       -3.6990137983
 H          2.6592252208        0.5903957830       -3.2667751874
 H          3.9394091004       -0.2136578602       -3.5971364313
 O         -3.4825461687       -3.4429902978        0.7833561410
 H         -4.3984296828       -3.4467491052        0.4579067987
 H         -2.9257898792       -3.3291997907       -0.0048649072
 O          2.1550068527        1.9367855956       -2.1650984280
 H          1.1962798582        1.9237757204       -2.3566243891
 H          2.3109061505        1.4446993283       -1.3330968648
 O          3.7686108549       -3.4653452381       -1.3893114700
 H          3.0130677423       -3.1799178958       -1.9387494530
 H          4.2748142034       -2.6493739904       -1.2116060862
 O          0.2818271946        3.7736272144        0.5854584517
 H          0.1462499048        2.8200592997        0.4518237909
 H          1.0566721728        4.0470618411        0.0342396711
 O          4.8651775462        2.6152958630       -2.2918867188
 H          3.9207668933        2.5219129675       -2.4762649802
 H          4.9187397535        2.8568469388       -1.3552107893
 O         -2.0901645813        4.8078579437        0.0773749666
 H         -1.1848056158        4.4614870153        0.2758003431
 H         -2.0202528036        5.7624020028        0.0674417782
 O         -4.2187084328       -1.5997584848        2.7774964116
 H         -3.5199347439       -1.5548552260        3.4394848088
 H         -3.9484030127       -2.2861288222        2.1483260090
 O          4.9200702499       -1.0516224868       -0.7515900964
 H          4.1176371093       -0.4960521839       -0.5807710922
 H          5.2911283304       -0.7090051844       -1.5850601662
 O         -0.6071077202        1.0476918058        0.3312478705
 H         -1.5251081991        0.9175243880        0.0535233307
 H         -0.1302547645        0.2666685314       -0.0060967753
 O         -3.3360798683        0.0614423662       -0.2396835492
 H         -4.0000691111        0.7402339217       -0.0271118151
 H         -3.4453431683       -0.6360207763        0.4137217349
 O         -8.8383836318        0.0953786719        0.2263907673
 H         -8.1292313110       -0.0880955237        0.8558379291
 H         -8.5231329202        0.8137935235       -0.3242789760
