  116
       -192.99994025
 H         -1.8221234442       -2.3049762844        0.5409361686
 C         -1.5308910626       -1.2546142448        0.6020876100
 H         -1.7734457621       -0.8754452044        1.5966677277
 C         -2.3074015329       -0.4449265155       -0.4389544870
 H         -3.3617322057       -0.7068814097       -0.3730294802
 H         -1.9401151621       -0.6830439753       -1.4381854886
 N         -2.1832178224        0.9945863841       -0.2483355998
 H         -2.4742271386        1.2408179029        0.6921859626
 H         -1.2063895185        1.2536550169       -0.3396394078
 O         -0.1310686156       -1.1254536621        0.4344604733
 H          0.1291923283       -1.8297370789       -0.1905575629
 O         -2.1963489713        2.6359911797        3.9145347410
 H         -1.4496035075        2.5016301345        3.3047319484
 H         -2.9885232051        2.5992508332        3.3539768440
 O          3.5604224585       -3.4440158072        0.7504052240
 H          3.8977906870       -3.1466702126        1.6068299315
 H          2.6956553912       -3.8957801109        0.9087511861
 O         -4.8939124938       -2.3764810968        0.7764584075
 H         -5.7448860094       -2.7866680552        0.9363906073
 H         -4.7758581204       -2.3815427226       -0.2059892517
 O         -4.6211305688       -2.3552029514       -1.8629599889
 H         -3.7615019917       -2.7315541803       -2.1249596127
 H         -4.6696006663       -1.4995875500       -2.3203662021
 O          1.0822597251        1.2736088774       -0.4984559138
 H          0.6905565312        0.4650313710       -0.1279365601
 H          1.9017185547        1.0012940517       -0.9390435733
 O          5.4549817797       -2.6684559910       -1.1344894052
 H          4.8329546934       -3.1888771637       -0.6024681688
 H          5.6703899148       -1.8968652577       -0.5825045300
 O          1.5722156495       -1.3270735568       -2.3892288762
 H          2.3403620320       -1.4448262199       -2.9624421133
 H          1.9599434570       -1.1198385475       -1.5125386392
 O          4.2372561671       -1.4495643047       -3.1304775190
 H          4.6779672167       -1.9671529333       -2.4062532804
 H          4.7818047890       -1.5564842439       -3.9095630049
 O          4.4720535714       -1.7394416891        2.8349193018
 H          3.6956559187       -1.1380068022        2.7751243356
 H          4.6585841158       -1.8540005109        3.7661021534
 O         -2.1633468125       -3.1327641336       -2.8477649859
 H         -2.2276439241       -3.8421721740       -3.4876846868
 H         -2.0634976105       -2.2909717961       -3.3812535805
 O          0.0854151048       -3.2492981028       -1.2912032244
 H          0.6768047501       -2.7284415636       -1.8676219559
 H         -0.7635830347       -3.2954783121       -1.7647284424
 O         -4.4980653894        0.0631785300       -3.2911106320
 H         -4.2759761192        0.8962644809       -2.7969754896
 H         -5.2032003977        0.2867714038       -3.8983673023
 O         -0.5239839680       -3.2497510451        3.0209880690
 H         -0.3761895248       -3.7394987254        3.8310719955
 H         -1.4982842300       -3.2665070959        2.8705563352
 O         -2.2251326538        0.0619262414        4.7146686854
 H         -2.9259246498       -0.1905046338        4.0957374836
 H         -2.2007470003        1.0414322818        4.6587726732
 O         -0.9545834960        3.7170924718        0.2203134708
 H         -0.7425245621        3.0155942402        0.8674880703
 H         -0.1766327290        4.2772417054        0.1677219119
 O         -0.0343747480       -0.5521046665        3.3705779212
 H         -0.7713570134       -0.3370447419        3.9932601242
 H         -0.1524263260       -1.4894126329        3.1401639998
 O          2.7769018437       -1.0405186330       -0.0048071489
 H          2.9784400330       -1.9873101434        0.1828940894
 H          2.4209818466       -0.6769247546        0.8307561119
 O          1.1010921837       -4.3515953388        1.0415814963
 H          0.5480016920       -3.9164283275        1.7116193613
 H          0.7124610132       -4.1139907717        0.1846543603
 O          1.9883401281        2.1806070901       -3.9869544860
 H          2.5901848038        1.6795376683       -3.4060565424
 H          1.8254284565        2.9963185783       -3.4951475699
 O          2.3316617443        2.6521659880        2.3830013754
 H          2.5557042937        3.2406582140        3.1036900157
 H          2.6811446358        3.0789847569        1.5533821878
 O         -2.0638094345       -0.9093216491       -4.2009648900
 H         -1.3647154439       -0.2818350826       -3.9250523505
 H         -2.9129160150       -0.5021231752       -3.9591378069
 O          3.3261748198        3.8387767330        0.2754738511
 H          2.7146190119        3.9137327772       -0.4732163209
 H          4.0560971428        3.2738990878       -0.0205233619
 O         -3.1865950717       -3.1694846910        2.8514945365
 H         -3.6748255850       -3.0698833145        2.0182634478
 H         -3.3954990991       -2.3721427958        3.3496014058
 O         -3.7465432083        3.9339181763        0.1830238021
 H         -2.7823161753        4.0306923658        0.2191055388
 H         -3.9337484170        3.4521473719       -0.6436088467
 O          5.3044373974       -0.4253620406        0.4893713107
 H          4.3607024362       -0.5411422394        0.2074507428
 H          5.3239205005       -0.7905252146        1.3848276724
 O         -4.3506603376        2.3237749727        2.1558445628
 H         -4.1335141342        2.9353340495        1.3986758789
 H         -5.1501592980        2.6730311924        2.5502662910
 O          1.3437995771        3.7228764351       -1.6886997145
 H          0.5054555889        3.9334198388       -2.1236917386
 H          1.1976658890        2.8486250100       -1.2784750524
 O         -3.7562255636        2.2201703690       -1.9757232344
 H         -3.0559406798        2.6773574966       -2.4781631482
 H         -3.2290446850        1.6986651448       -1.2961314698
 O         -0.2757166314        1.8882031902        2.0961535290
 H         -0.2649817598        0.9413914661        2.3284417135
 H          0.6471264766        2.1826954599        2.1941285176
 O         -1.2680350441        3.1087828691       -2.4770433032
 H         -0.9101376924        2.2223321316       -2.6681052534
 H         -1.2440599558        3.2172197959       -1.5103531549
 O         -0.1134104938        0.6947253659       -3.2066406687
 H          0.5562402801        1.2199475422       -3.6968415141
 H          0.4113288986       -0.0204284588       -2.8005899801
 O          5.3981119710        2.0697993437       -0.4281314546
 H          5.4449655688        1.1971948005        0.0262614629
 H          6.2979638212        2.3345646329       -0.6173718765
 O          3.4377074888        0.9512662287       -2.0384627484
 H          3.7938882733        0.1167210420       -2.3874034377
 H          4.1575355266        1.4062130916       -1.5787013647
 O         -4.0563070461       -0.4007825125        2.6527244072
 H         -4.2118864806        0.5280520303        2.4203252539
 H         -4.4182229457       -0.9352098365        1.9318705060
 O          2.4203980045       -0.0747416555        2.4769886057
 H          1.5429177850       -0.2736759855        2.8611370660
 H          2.4865725176        0.8952643561        2.4406418937
