  90
       -152.68136427
 O         -1.8146145727       -2.6398792728       -3.1514181456
 H         -2.3875580404       -3.1505323200       -3.7244214512
 H         -2.1188571303       -1.6934356199       -3.2538500691
 O         -1.0047425974       -3.7085372324       -0.6672119554
 H         -0.0412586173       -3.5496541406       -0.6980905585
 H         -1.3223046806       -3.4505471653       -1.5471767285
 O          3.8347295398        1.7417587121        1.9354533334
 H          3.8605495529        2.0561426616        1.0030744716
 H          3.9134202690        2.5215600242        2.4870654245
 O         -1.8348608016        3.9580751710        1.0881042517
 H         -2.1829164493        4.8282749753        1.2874745809
 H         -2.1975908745        3.3587536837        1.7849202313
 O         -2.6470349312       -0.1957302041       -3.5285596822
 H         -3.4509890890        0.0009594233       -3.0055492057
 H         -2.0706832859        0.5812778465       -3.4205470041
 O         -2.3095223257       -1.4070052664        3.0676006483
 H         -1.6364346569       -0.7561372319        3.3358649080
 H         -3.1225088116       -0.8739592521        2.9693122335
 O         -0.9321153442        2.0267054047       -3.2865370873
 H         -0.0267861717        1.7174876893       -3.0221193850
 H         -0.8472065026        2.3976205145       -4.1658273520
 O          1.6868661930       -1.7687364384        1.3244631815
 H          1.0800831892       -2.3393270432        1.8361059193
 H          1.7186314134       -2.1747257925        0.4351026926
 O         -2.6491224255        2.4284439976        3.1098240485
 H         -1.9176035029        1.8512583009        3.3864315544
 H         -3.4002264357        1.8420268735        2.9520988783
 O          4.3117574496       -1.1042055967        1.9157182491
 H          4.2750506991       -0.1433511892        1.9949268720
 H          3.3957828767       -1.4076533148        1.7906398730
 O          3.8271041362        2.6972578822       -0.5785154643
 H          3.0542206178        3.3535170106       -0.5471379413
 H          4.6013663234        3.2248501530       -0.7794534441
 O         -2.8258820518       -2.1742238602        0.5235970104
 H         -2.1649272590       -2.7749586523        0.1188608064
 H         -2.5890546720       -2.0543958383        1.4635618585
 O          1.5982248436       -3.0310241287       -1.0467223404
 H          2.4906832803       -3.4471959773       -1.0704953231
 H          1.4258730586       -2.7332166237       -1.9597675069
 O         -4.2521925049        0.3108596874        2.1768876120
 H         -3.6673691457        0.5287731278        1.4227255172
 H         -5.0001968082       -0.1430803285        1.7711069682
 O         -4.6280582799        0.4009157207       -1.7726230342
 H         -5.1261753990       -0.2380311118       -1.2449843794
 H         -3.9330869861        0.7168818469       -1.1720572309
 O         -0.3010116037       -3.3091724644        2.3172632907
 H         -0.6556763706       -3.7440804783        1.5347867319
 H         -1.0209977299       -2.8106957626        2.7262586575
 O          4.0933428750       -3.9344909229       -1.0986026505
 H          4.3391038492       -4.6284159843       -0.4858367004
 H          4.6815186611       -3.1666096474       -0.8754616612
 O         -0.6050548825        0.6390221404        3.7737031443
 H          0.1335014609        0.7158911597        3.1215000688
 H         -0.2106593250        0.6978001288        4.6440457883
 O          0.7687347228        3.5830920057        1.8809418340
 H          0.8564084252        2.6214248800        1.8475288102
 H         -0.1548029963        3.7699296267        1.6300725758
 O         -5.4278688680       -1.4517037589        0.2414401703
 H         -6.0105745784       -2.2076718053        0.1710830858
 H         -4.5169854693       -1.8038432806        0.2920767222
 O          0.8530418279       -2.5357070245       -3.6258107543
 H         -0.1183183647       -2.5384946764       -3.4962306941
 H          1.0658893885       -3.3109395118       -4.1471410795
 O          1.3046692134        0.7976976286        1.9561710642
 H          1.3767825545       -0.1285730951        1.6430469318
 H          2.2283965229        1.0964674721        2.0641840241
 O         -0.5531049362        4.1794324731       -1.5141164443
 H         -0.8071258314        3.4569489382       -2.1117790559
 H         -1.0870010778        4.0863549816       -0.7139742855
 O          1.9145799046        4.3804858627       -0.3936969072
 H          1.5695076379        4.2110233376        0.5119648907
 H          1.1166214977        4.3556390048       -0.9585191280
 O          5.5775430972       -1.8721988108       -0.3522222104
 H          5.2256371468       -1.6373769911        0.5322749157
 H          5.4047243316       -1.1043126123       -0.9139119948
 O         -2.6387565960        0.5364113590        0.0537347238
 H         -1.7515974524        0.8981903578       -0.1430215960
 H         -2.5568201121       -0.4341125453        0.0451589925
 O         -0.1133367732        1.2235371295       -0.4609820452
 H          0.4471227092        1.1415018147        0.3182472940
 H          0.3345535431        0.7895460445       -1.2041404865
 O          3.5316762432        0.0521932833       -1.2387582091
 H          3.2505438856       -0.2991828068       -0.3895535761
 H          3.7640476723        0.9881184241       -1.0912676598
 O          1.2218713188        0.2255921909       -2.6600237714
 H          1.0596981805       -0.6188181599       -3.0951768017
 H          2.1176173151        0.1574944266       -2.2709511711
 O          6.3614178025        1.0096421124       -0.3816189095
 H          6.4595137368        0.4771666138        0.4114011758
 H          7.0020221170        0.6838493810       -1.0160972143
