  386
       -651.41679340
 H          0.6635402526        0.8956431256       -1.1264559730
 C          0.7379162558        0.1179808219       -0.3669807468
 H          0.9695914676       -0.8323343310       -0.8560655988
 C         -0.5910554954       -0.0328727356        0.3696673353
 H         -0.5820034622       -0.9662819724        0.9339016035
 H         -1.3841430565       -0.0769411505       -0.3704335289
 N         -0.8223146569        1.1176497683        1.2408971626
 H         -1.7969795933        1.1731551226        1.4986650411
 H         -0.2790312989        1.0212952909        2.0894467484
 O          1.8022076032        0.5016771876        0.4848542533
 H          1.6800504320        0.0719200251        1.3574891885
 O         -1.5753704390        4.2982879296        1.8778452157
 H         -0.8023328798        3.9492321955        1.3905566331
 H         -2.3490182670        3.7990909032        1.5415863021
 O         -3.6079828366        1.0146793235       -1.5563993013
 H         -3.4602360970        0.3364899834       -2.2288725555
 H         -3.6269510547        1.8531733908       -2.0474752392
 O         -1.3258239714       -4.0441956805       -4.9816987422
 H         -1.8778789737       -3.6696092641       -5.6960934823
 H         -1.8289775260       -3.8405172672       -4.1643829457
 O          1.4169337813        3.2092654876       -2.1733957350
 H          0.9248038485        3.1193858753       -1.3274167589
 H          1.9840365508        3.9863440890       -2.0227865002
 O         -1.3363227305       -1.1340564197       -2.5733977965
 H         -1.5384147040       -0.1899279062       -2.6581704637
 H         -0.4214143496       -1.2073323539       -2.8866542562
 O         -1.5304051933        5.7147998131        4.1351891487
 H         -1.5299202332        5.1498980735        3.3361334712
 H         -1.8642309300        5.1414516868        4.8361549150
 O          0.6800214884        1.7736170871       -5.0737114509
 H          0.7592359764        1.2959058584       -5.9060255069
 H          1.4496673846        2.3802673924       -5.0322064292
 O          1.0631998731       -0.6637614508       -3.6662265667
 H          1.8035390200       -0.2016831934       -3.2252435846
 H          0.7330640451       -0.0046113736       -4.2949979233
 O         -8.8053504853       -0.3389619753        1.6536970297
 H         -8.9733992574        0.1647194908        0.8417678206
 H         -9.0700486800       -1.2704424328        1.4765989580
 O         -5.4732424631       -2.0747264057       -1.6743912738
 H         -5.7804762767       -1.1327370900       -1.6633175963
 H         -5.3742409034       -2.2973453915       -2.6176673943
 O          8.1852751726        0.5183440352       -4.6389159649
 H          7.2864740500        0.3551651984       -4.2465938756
 H          8.1078372579        0.3826595926       -5.5822002792
 O          1.1273730691        5.6842674654        2.9769326770
 H          0.9968046914        4.7110540383        2.9211264701
 H          0.3521761380        6.0172288622        3.4468676871
 O         -7.4092555509       -3.1348072549        3.4093118874
 H         -7.8593400963       -2.7795342370        4.1771824190
 H         -6.6533437421       -2.5202133521        3.2609473101
 O          2.7831291827        3.3332016188        0.6423148003
 H          3.1093718152        3.9811682170        1.2975285916
 H          2.9280685126        2.4513460165        1.0313816869
 O         -2.7853542361       -4.9908982237        1.5187322514
 H         -3.4975249330       -5.2399398443        2.1198596905
 H         -3.1857361491       -4.8988908486        0.6333331065
 O          1.6376308201       -5.8702566534        2.7204340886
 H          0.9239749898       -5.4192227822        3.2254900417
 H          1.7190413460       -5.3837044260        1.8875686709
 O          4.4467226409        3.2567016699       -1.3731380538
 H          3.6914149570        3.2526636139       -0.7364915914
 H          4.8185897705        4.1527569931       -1.3090389349
 O         -2.5305429026        3.4556600165        5.4433664981
 H         -2.6609981741        2.9096136450        6.2276588089
 H         -1.9312668990        2.9126389214        4.8779733571
 O         -0.9340521129        1.7115702900        4.2604168303
 H         -1.6776065752        1.0927837730        4.0646041805
 H         -0.5398959722        1.3976237250        5.0884451750
 O         -0.6097207430       -6.4530895525        1.0261381024
 H         -0.0555150245       -6.6659353451        1.7867603452
 H         -1.3432507867       -5.8981593666        1.3694482533
 O          2.6132137843        5.5893807250       -1.5464661392
 H          1.9854764524        5.9238714997       -0.8621125986
 H          3.4959380027        5.7903554124       -1.2135991259
 O          4.0999216680        0.0861478030       -0.7792666096
 H          3.3337611348        0.2966436622       -0.2009992457
 H          4.7354422480       -0.4320140295       -0.2464625412
 O          0.3056749944        1.3353788857        6.7240745218
 H          1.0834951767        0.9725845686        6.2451935963
 H          0.6101043975        2.1228764519        7.1751201356
 O          1.4906378385       -5.0541919538       -0.0100642570
 H          1.3215623618       -4.3770104256       -0.6977712024
 H          0.6371018679       -5.4816780973        0.1865589847
 O          0.1979035489        3.2571981479        0.1961672071
 H          1.1050427403        3.3686702758        0.5472765156
 H         -0.1304464356        2.3675183175        0.5584530348
 O          5.9146851696        0.1273556768       -3.3896100668
 H          6.2597495527        0.0643361066       -2.4707169113
 H          5.5205241245       -0.7233994138       -3.6341202018
 O         -4.7039281016        1.8204730541       -5.3367239029
 H         -4.0996830074        2.1195183980       -6.0182839533
 H         -4.5247446639        2.3914724731       -4.5380059202
 O         -3.5676921499        3.0752027962        0.6387520424
 H         -3.1210154393        3.1419793102       -0.2275757149
 H         -3.7552511582        2.1218273068        0.7919006740
 O         -5.1177413299       -2.3972650150       -4.3458302380
 H         -4.6554316089       -1.5246919318       -4.2927081396
 H         -6.0677907797       -2.1730662396       -4.5103375346
 O          3.0230293816       -5.9542234289       -3.3327800027
 H          3.1353883817       -6.5089904862       -2.5458186563
 H          2.0619266196       -5.8525473921       -3.4387663185
 O         -3.9058722876        0.5248583644        1.2208039036
 H         -3.4719184675       -0.0026956010        0.5310599572
 H         -4.8474983609        0.2644232573        1.1338231973
 O         -7.1352302213        1.0929377482       -4.2592202234
 H         -6.7238977796        0.8882691334       -3.3893827358
 H         -6.4181830891        1.4123470119       -4.8210779275
 O         -8.5222929022        2.7893701051       -2.5540007753
 H         -7.7197764893        3.2545548721       -2.2491121599
 H         -8.2390170513        2.2856475507       -3.3339586706
 O          4.6627543439       -3.8758508620        1.4002720801
 H          4.4001593421       -4.2147038321        2.2872734433
 H          4.9464404064       -4.6381541683        0.8590163648
 O          1.0223696558       -0.5350021138       -6.6892021859
 H          1.0144206847       -1.4735896226       -6.4226845025
 H          1.9115003682       -0.2295401256       -6.4372558384
 O          8.9807568317        2.4971436627       -0.7319507028
 H          9.4394934994        3.3333835120       -0.6536377706
 H          8.4476508973        2.5610024537       -1.5620068573
 O          1.0536331111        3.0151305426        2.9739240195
 H          1.8261085216        2.8149813503        3.5074051670
 H          0.2867901425        2.5937608772        3.3988824066
 O         -1.9515024244        2.7277592049       -5.6588602280
 H         -2.3481238401        3.5777968474       -5.4350023055
 H         -1.0019774066        2.8534972393       -5.4943061725
 O          7.2530325117        0.0577481690       -1.0662661744
 H          6.8623713050       -0.7031868005       -0.6033552327
 H          8.0627285755       -0.2655093927       -1.4954403385
 O         -1.7117199086        6.7072322056        0.6838029345
 H         -2.3429738313        7.1546109080        1.2749315277
 H         -1.6349914876        5.8121884064        1.0839410455
 O         -2.6499559856        5.1393838869       -4.1675230225
 H         -1.7002566441        4.9160594993       -4.0685173122
 H         -2.8257846764        5.7872084193       -3.4693578406
 O         -2.8694963833       -1.4678728243        5.9541595803
 H         -3.8469979993       -1.5265942076        6.0754744688
 H         -2.7354020691       -1.0151558987        5.1029454044
 O          7.0905309329       -2.6548049115       -2.1092834075
 H          7.2723810302       -3.0264396443       -1.2335649685
 H          6.3483940982       -3.1693679975       -2.4558869469
 O         -2.9888206548       -4.0107094187        4.7687332358
 H         -2.1245348991       -4.2568057331        4.4022070373
 H         -2.8844317973       -3.1473408796        5.2050484339
 O         -0.0889724318        4.3477890911       -4.1060158571
 H          0.3418909938        3.8565874988       -3.3777193947
 H          0.5509106138        5.0294241448       -4.3425708681
 O         -6.2347945404       -0.6463843180        0.7303876511
 H         -7.0886384042       -0.5505883893        1.1825883595
 H         -5.9505749309       -1.5686171726        0.8269444555
 O         -2.9422969752       -2.3296843340        2.2513267308
 H         -3.0564968014       -1.9872758003        1.3377234106
 H         -2.7715148122       -3.2796946118        2.1518750307
 O         -4.9937622959       -4.6549259734        3.1760420427
 H         -5.8462012758       -4.4760655984        3.5875992964
 H         -4.3086568372       -4.3620018486        3.8243602069
 O         -3.1946178569       -1.6060034369       -0.2817841155
 H         -4.0194013642       -1.8224724915       -0.7525003262
 H         -2.4921541329       -2.2045757232       -0.5854254213
 O          1.0356189691        6.5120611241        0.3594179191
 H          1.1582805080        6.2317258418        1.2847005812
 H          0.0943874343        6.7312592873        0.2927479174
 O         10.1027002808       -0.7777799715        1.6200717851
 H         10.9496563208       -0.8488208888        2.0594314099
 H         10.3007022990       -0.4840240320        0.6856828044
 O          3.7354668333        2.6515931582        4.1086133376
 H          3.8261483792        2.1777677642        3.2275544425
 H          4.5812353050        2.4043261818        4.5464593671
 O         -7.5817717662       -3.4602878270       -0.9953267092
 H         -7.3924894659       -4.2137970648       -1.5824728987
 H         -6.7896802989       -2.8744528982       -1.1369554732
 O          0.0496993234       -2.9734018452        1.7070248646
 H         -0.4981430483       -3.2065584210        0.9366563666
 H          0.9513736130       -2.8365626473        1.3735880537
 O         -3.6377694236       -0.2544039435       -4.0602384509
 H         -4.1039886928        0.4740888233       -4.5240703268
 H         -2.7952529610       -0.3606922131       -4.5285380300
 O          4.0550980610        1.3594393046        1.9148899665
 H          4.8942338028        1.5143553789        1.4355308801
 H          4.0558255057        0.4234156634        2.2103671397
 O          3.7822109055       -4.6457177204        3.7695109607
 H          3.1064015565       -5.2997094593        3.4971459152
 H          3.2530299108       -3.8876916648        4.0978912450
 O         -3.5467053265        6.9963252216        2.6546836128
 H         -4.1834519260        6.2913127419        2.4936243501
 H         -2.9176905286        6.6665760979        3.3195280116
 O         -2.9008546906        6.0423340286       -1.6025936160
 H         -2.6086104737        5.1119031106       -1.5545841435
 H         -2.4452786871        6.4689828418       -0.8476474681
 O          5.7824747479       -1.5282664723        0.5215710464
 H          5.9536946888       -1.0031762065        1.3292594802
 H          5.4593549084       -2.3958621471        0.8146613013
 O         -8.6405331269        0.8459110666       -0.7781090701
 H         -8.7413460845        1.6057096819       -1.4067286393
 H         -8.8372167916        0.0505225301       -1.3012472625
 O          4.4214327206       -1.8117645346       -4.5433952441
 H          4.1996973763       -2.6828463677       -4.9474102321
 H          4.0460100172       -1.1265844287       -5.1166660889
 O          3.1208676750       -6.9899252229       -0.7363865325
 H          2.7756927636       -7.7751645024       -0.3132612032
 H          2.5348304777       -6.2406470082       -0.4509811569
 O          5.1696950645        2.6772309521       -3.8531162780
 H          4.8094142691        2.8968885695       -2.9707650521
 H          5.2997962048        1.7114068572       -3.8190647019
 O         -0.3876468968       -4.4903878449        3.8152283562
 H         -0.3116401065       -3.8757309806        3.0471737056
 H         -0.1519673787       -3.9543563867        4.5924374949
 O          1.0578656388       -2.8383381380       -5.2497687646
 H          1.0926476744       -2.1591692110       -4.5485015716
 H          0.1833671375       -3.2716303680       -5.1821220402
 O          3.7437381151        4.8914544771        2.6202161864
 H          2.9814854634        5.4599629514        2.8036864208
 H          3.7482883426        4.2079867087        3.3205143365
 O          1.3151234151       -0.4756798104        2.9713531653
 H          1.7312831552       -1.3331871919        3.1495500055
 H          1.6292903529        0.0806325794        3.7087174041
 O          8.6086584774        1.5192420816        1.8177240361
 H          8.6110395436        1.8807430285        0.9148975940
 H          9.2241346136        0.7661885370        1.8187195370
 O          3.9407150421       -1.1375530770        2.6652316279
 H          3.4695612407       -1.6421862119        1.9863231894
 H          4.5788634964       -1.7169564833        3.1047914907
 O         -4.0276021203       -4.6396709561       -0.9221939356
 H         -3.5674088121       -4.0667954880       -1.5708562968
 H         -4.5805538275       -4.0418779159       -0.3700416487
 O          6.2070090257        4.5468189941        1.4598042113
 H          6.2099082241        3.6261470438        1.1246443326
 H          5.3612819966        4.6853073116        1.9189920613
 O          1.0093148879       -3.3109729320       -2.0323333820
 H          0.8717524069       -3.9994442110       -2.7098165525
 H          1.7911643203       -2.7837221505       -2.2714819366
 O         -5.2826146657        4.7131618228        1.7817916337
 H         -6.1250737997        4.2944003412        1.5678142290
 H         -4.6223183687        4.1414481121        1.3231255434
 O         -6.7682584836        2.4601179796        0.7804072804
 H         -7.5315261991        1.9786189379        0.4459801348
 H         -6.4149908058        1.9254949981        1.5205813016
 O         -5.0304011672        1.2782634065        5.8956499488
 H         -5.2055411932        2.1768465717        5.5932117336
 H         -4.2660235671        1.3131476776        6.4867930954
 O         -2.4910441647        1.0178131880        7.0445464349
 H         -1.5341258712        1.1180013173        7.1134818925
 H         -2.6130120740        0.0841617116        6.7700331766
 O         -1.9084130505        3.5371338362       -1.4123124708
 H         -1.1225350804        3.6088455220       -0.8483398205
 H         -1.7200869791        2.8137531740       -2.0396369631
 O          2.8756037304        3.3406449945       -5.1726914097
 H          3.7124011190        3.1392629007       -4.7081845166
 H          2.6513307838        4.2467143788       -4.9228452763
 O          3.3457189168        0.4987358555       -5.5822258248
 H          3.1839567158        0.7532481780       -4.6476003718
 H          3.6150017309        1.3112223768       -6.0147138630
 O          6.5909135239       -0.0192058906        2.6117608193
 H          7.2277524180        0.6349532943        2.2498000437
 H          7.1176782195       -0.7967988287        2.8494004066
 O          7.6775199330       -4.1028120117        0.2368198082
 H          6.9511565139       -4.7431706819        0.1457309102
 H          8.4886755313       -4.5823042287        0.0675014704
 O         10.5802737324        0.2442164293       -0.7244134625
 H         10.0543491265        1.0646610087       -0.7677340946
 H         10.2638656724       -0.3064605045       -1.4595709752
 O          3.4537889536       -4.0844359947       -5.4761697640
 H          3.4347677224       -4.8627087094       -4.9086459018
 H          2.5400483745       -3.7413897942       -5.4991409305
 O         -0.0878022592       -2.5807756196        5.7337308043
 H         -0.6588595455       -2.5281214572        6.5005458775
 H         -0.5231568938       -1.9895519945        5.0521128213
 O         -4.0905390977        3.1186838618       -3.1848568594
 H         -4.8635629073        3.3938197371       -2.6397124700
 H         -3.6113499728        3.9277085396       -3.4661955703
 O         -3.0488572669       -2.5617044028       -6.4099367134
 H         -2.6597708466       -1.6769323299       -6.3528623109
 H         -3.8717764554       -2.5513406794       -5.9034820953
 O         -2.8750287801       -3.2529330412       -2.9398679588
 H         -2.3736926820       -2.4213994244       -2.7674418755
 H         -3.6337379558       -3.0155872626       -3.4890986598
 O          7.8258315011        2.8485696231       -3.0880350280
 H          6.8856952883        2.9266960089       -3.3366575023
 H          8.1731134433        2.1400411927       -3.6479346345
 O         -5.5142873579       -3.3594078717        0.9117152526
 H         -5.2670418941       -3.7542470848        1.7789908266
 H         -6.3834364246       -3.7071353534        0.6911089585
 O         -6.1533434336       -5.0396077695       -2.6625685782
 H         -5.9098336522       -4.5474596257       -3.4503985667
 H         -5.3708445899       -5.0432474599       -2.0808880184
 O         -7.6024838954       -1.5511854416       -4.4791662774
 H         -8.1584467027       -1.6458090284       -3.6908300937
 H         -7.5081062959       -0.5826010117       -4.5836311638
 O          3.2893654324       -1.9575127172       -2.1814603457
 H          3.6060878696       -1.1565973475       -1.6919856059
 H          3.6205924590       -1.8433920855       -3.1029305847
 O          0.3235882437       -5.5085845936       -3.4339559072
 H         -0.1978709614       -5.1901193676       -4.1877474053
 H         -0.3232819757       -5.8388821403       -2.7913733360
 O          2.3648892131       -2.5067910445        4.5901514758
 H          1.5527609410       -2.5600517701        5.1230895411
 H          2.9894805893       -1.9637804230        5.0812151396
 O         -5.4484120029        6.0627967888       -0.7247473045
 H         -4.5413744556        6.1575497364       -1.0852372629
 H         -5.3512123213        5.9348729710        0.2283864595
 O          5.4033601381        5.7214324558       -0.7939360277
 H          6.1251217911        6.1710314111       -1.2311694995
 H          5.7510224629        5.4025889698        0.0763272056
 O          2.3562395770        0.6759047531        5.1815337846
 H          2.8214199227        1.4826984367        4.8666468744
 H          3.0764068660        0.0729076075        5.4447715767
 O         -1.3183251433        1.5820177099       -3.1898918106
 H         -1.9271463958        1.8673931117       -3.8869263070
 H         -0.4396603457        1.7042830154       -3.5777745609
 O          6.0891730744        2.0739488700        0.3408080073
 H          6.6562733372        1.4135955185       -0.0892396336
 H          5.4959454606        2.3914030927       -0.3755853492
 O          4.7988150504       -4.1573127412       -2.3332346824
 H          4.2407565488       -3.3783841100       -2.1314138826
 H          4.2319539172       -4.7647483876       -2.8408330252
 O          7.5948161403        3.3555405056        3.6329736334
 H          7.1709272493        3.9653075443        3.0104425072
 H          8.1052189579        2.7478332828        3.0765255423
 O         -5.2895453249       -1.5549065910        3.2786902951
 H         -4.4038834519       -1.8293205783        2.9531062643
 H         -5.4142714225       -0.6214690767        3.0452140065
 O         -1.5720013076       -6.0503651418       -1.4808306665
 H         -1.2755856719       -6.4591545065       -0.6530969643
 H         -2.5342592014       -6.0332295241       -1.4638830320
 O         -5.9348734373        1.1795556711        3.0192584090
 H         -6.6817112103        0.8770043516        3.5658641594
 H         -5.5581503385        1.9626589233        3.4626975808
 O         -8.0748871294        0.0119069790        4.2125208520
 H         -8.7468068939        0.4986188929        4.6874510246
 H         -8.4220145131       -0.1480038322        3.3133495007
 O          7.9974588825       -2.4076151872        2.4442546004
 H          8.7900303810       -1.9071088761        2.1929154337
 H          7.7832993184       -2.9528505701        1.6691186921
 O         -1.6360252318       -0.1246242370       -5.9037327707
 H         -1.7694407415        0.8232862307       -6.0324088569
 H         -0.7461911387       -0.3213036999       -6.2387407511
 O         -1.1088128808       -1.1559804084        3.8277753720
 H         -0.2962276898       -0.9332793211        3.3388276082
 H         -1.7153238902       -1.6049721908        3.2085126984
 O         -6.1136813974        3.6718093700       -1.5828090375
 H         -5.9692053882        4.6157330694       -1.3265780070
 H         -6.1855460778        3.1866103876       -0.7410371703
 O          2.2094970336        5.9113886204       -4.1718410954
 H          2.4149549712        6.8109336786       -4.4216037714
 H          2.3580238864        5.8446986837       -3.2009045162
 O          9.2002221558       -1.0772862932       -2.6565277208
 H          8.5325674177       -1.7865800542       -2.6291798453
 H          9.0091107318       -0.5486109469       -3.4493002699
 O          2.9031910933        1.1048889761       -2.9651036226
 H          3.5158386117        0.9299682927       -2.2354047691
 H          2.3891465512        1.8994703708       -2.7135513433
 O         -9.1061622071       -2.9420282742        1.2811892599
 H         -8.5372126741       -3.1539908089        2.0470922672
 H         -8.6216348161       -3.2140193489        0.4885446426
 O          6.0066730339        1.4981440079        4.7864256198
 H          6.6398819794        2.2194553738        4.5993930270
 H          6.1065054716        0.8983648371        4.0171015603
 O          5.5086027417       -5.7053424752       -0.3286340748
 H          5.3182428099       -5.1297787766       -1.1107421534
 H          4.8100396170       -6.3786363966       -0.3711325939
 O         -9.1150824604       -1.5770408938       -2.0994261225
 H        -10.0347366049       -1.8402654530       -2.1015037837
 H         -8.6141388601       -2.2950003695       -1.6463730095
 O         -5.5235134265       -1.4639500120        5.9575679513
 H         -5.6842556256       -0.5223339809        6.0937624954
 H         -5.5263354680       -1.5775931656        4.9858428795
 O         -4.9344094793        3.4353856980        4.1740312031
 H         -4.0295423905        3.5578260531        4.5213032728
 H         -5.0335802935        4.0321912810        3.4101918685
 O         -3.2362727851        0.4545164278        3.8871943681
 H         -3.9660258922        0.7639086547        4.4471154655
 H         -3.5323629172        0.4950423644        2.9613537818
 O          5.7604577869       -2.6738951718        4.0937436816
 H          5.3595323702       -3.5512139535        4.1172498537
 H          6.6032747479       -2.7426086929        3.6234631051
 O         -1.2316152127       -3.4410620534       -0.6260549440
 H         -0.5391425565       -3.0829332157       -1.2030667031
 H         -1.4093078908       -4.3366193133       -0.9576445853
 O          4.5757385816       -0.7628099062        5.7369789259
 H          5.0522167036       -1.4455868167        5.2387152722
 H          5.1327387320        0.0254374951        5.6676424669
 O          2.5592826618       -2.4951552437        0.6705468694
 H          2.6066834798       -2.2966304559       -0.2679981615
 H          3.2482857114       -3.1712015092        0.8407835864
 O         -6.1449980408        0.4418249723       -1.8606547171
 H         -5.2740994545        0.7874086086       -1.5558301389
 H         -6.8106505074        0.6212014689       -1.1775850790
