  114
       -193.40000889
 O          3.2787064695       -0.8960263132       -2.0287441591
 H          3.0543916626       -0.3913678848       -1.2251527112
 H          2.4849726978       -1.3882727659       -2.2766213299
 O         -1.2277133785       -0.6799812783        3.9859487368
 H         -1.2746974516       -1.6457686476        3.8807525724
 H         -1.9386271033       -0.3239165662        3.4415148244
 O          2.3542438560        2.1536459771        2.2480409142
 H          1.9409996803        1.5923799548        2.9268956501
 H          1.6926216903        2.8018230936        1.9493131332
 O         -3.2009530511        2.2516093034       -2.2347845537
 H         -2.8247022394        3.1397922548       -2.3032645188
 H         -2.7288239877        1.7202979305       -2.8982054205
 O          0.9354371260        4.2522187682       -1.6869175144
 H          1.5535833675        4.9825480855       -1.7512116949
 H          1.4265177933        3.4553013717       -2.0018685222
 O         -3.6072991298       -1.0159910946       -3.3311223068
 H         -2.9460429706       -0.4602148731       -3.7705653085
 H         -4.4433119605       -0.5054790608       -3.3674868986
 O          4.8859369918       -2.3011773632        2.0997793905
 H          4.8316449361       -2.6853307854        1.2045721850
 H          5.3156892878       -1.4412298128        1.9668150310
 O          0.2848585217        0.5114832470       -2.2618953665
 H          0.5083913087       -0.4418243784       -2.1601254094
 H          1.1250402040        1.0104147882       -2.2989528347
 O         -3.3276254099       -0.5453685634       -0.7428903819
 H         -3.3564211296       -0.7607070132       -1.7053530566
 H         -4.1290064288       -0.9443131320       -0.3644921445
 O          5.5014770785        0.1420880050        1.0296393021
 H          4.5971938938        0.1564485169        0.6493384319
 H          5.6387716415        1.0310929950        1.3807163201
 O          0.8043550885       -2.0876323326       -1.9270328942
 H         -0.0985815836       -2.4330714607       -2.0670698156
 H          1.1670413762       -2.6182245383       -1.1861517838
 O         -3.2570760634       -3.8607795837        0.0356012354
 H         -2.6112201247       -4.5281226066        0.2870060820
 H         -3.3801791066       -3.3127088998        0.8335068864
 O         -3.4771482253        0.4449933275        2.3726240248
 H         -3.7698087482        0.9340279912        1.5738629140
 H         -4.0814427590        0.6976907532        3.0722583325
 O          4.6173167976       -2.8215080886       -0.5950409414
 H          5.5533120649       -2.6845088796       -0.7884448950
 H          4.1638025897       -2.1576064566       -1.1521657326
 O          1.2612807643        0.2778043696        3.9787882683
 H          0.3257114088       -0.0359602794        3.9600993360
 H          1.4881726640        0.3608183043        4.9062502477
 O         -1.7387198715        4.6319801793       -2.0928901944
 H         -0.7743259142        4.4849345062       -2.0224774679
 H         -1.8630590290        5.4760389251       -2.5288073728
 O         -1.5970725880       -3.4042543092        3.5647459878
 H         -1.5538648082       -4.0983121199        4.2228999398
 H         -1.1659984813       -3.7536594712        2.7494091153
 O          2.3898794815        2.1513870563       -2.4152959261
 H          2.8210430853        2.0727918903       -3.2685502658
 H          3.1460131551        2.2871814939       -1.7686268356
 O         -0.6417977975       -4.1365950602        1.1748365176
 H          0.2763858271       -4.2141378356        0.8868537127
 H         -0.9162095980       -3.2352950874        0.9144882389
 O         -2.2567335029        3.7010370241        0.4346124434
 H         -3.1672125853        3.4206970390        0.5976730652
 H         -2.2558552513        4.2187231093       -0.3873547371
 O          0.4932870533        3.6772184309        1.0081642120
 H         -0.4431738917        3.8624708947        1.1383797725
 H          0.6918943059        3.9163304778        0.0883434050
 O          6.9573128860       -1.2493894395       -0.7750436614
 H          7.8907978319       -1.2982452365       -0.5691805655
 H          6.5281939430       -0.7433306555       -0.0545328699
 O         -1.7940911883       -2.7230725925       -1.9808681077
 H         -2.3231427841       -3.1852377947       -1.3040416043
 H         -2.4119498603       -2.4476103807       -2.6649027746
 O         -1.6710612285        0.8421234014       -4.0347480532
 H         -0.8896090816        0.6713347794       -3.4627421891
 H         -1.3526149209        0.9742621736       -4.9276502890
 O          4.4950465183        2.6363702179       -1.0361522572
 H          4.7048228387        2.6423978182       -0.0904761312
 H          5.0633756989        1.9571174671       -1.4618925797
 O         -5.5420089220        0.8035300327       -2.9421900085
 H         -4.9127941159        1.5203180113       -2.7859454235
 H         -6.0295107120        0.6860742981       -2.1132411334
 O         -6.6446606884        0.4499230822       -0.3712375972
 H         -6.3563165727       -0.4592899949       -0.1692619689
 H         -7.5970226722        0.4707899175       -0.2699863662
 O         -4.3958996527        1.9217418348        0.2637649079
 H         -4.0178789214        1.8988016185       -0.6328358458
 H         -5.2859163532        1.5502368791        0.1608144470
 O          2.3925451759       -1.5949580124        2.2454578210
 H          2.1513231247       -1.0592775589        3.0158326183
 H          3.3306146767       -1.9052240270        2.3690295391
 O          2.8489468169        0.2458909397        0.3833915860
 H          2.6878405143        1.0565948144        0.8992078962
 H          2.6311428584       -0.4892035667        1.0011454898
 O         -3.8098215616       -2.3322312584        2.2879897517
 H         -3.1319752605       -2.7576535777        2.8406099964
 H         -3.5572675486       -1.3936393676        2.2492189687
 O         -5.5036000622       -1.9667867723        0.1827225713
 H         -5.1591265814       -2.1737931928        1.0674840480
 H         -5.3669126859       -2.7633711149       -0.3394333629
 O          1.9098625329       -3.3735843805        0.1987712074
 H          2.8112912019       -3.5771651490       -0.0808219748
 H          2.0048975568       -2.7912204691        0.9709015138
 O          5.5916241801        0.5881896937       -2.3711150544
 H          6.2414750029       -0.0108364868       -1.9733274699
 H          4.7988044091        0.0455601605       -2.4879973650
 O          4.9523085372        2.7391237545        1.7336670067
 H          4.0364032408        2.5878836547        2.0376490667
 H          5.2554667710        3.5523335305        2.1376757729
 O         -1.3798291664       -1.6502874745        0.8380042531
 H         -2.0301141175       -1.3980513256        0.1546458090
 H         -0.8066277992       -0.8694601096        0.8916981709
 O         -1.0980170914        2.0230577291        2.9790259028
 H         -0.5961095841        1.8773879726        2.1669612508
 H         -1.9392627878        1.5909768724        2.8053234646
 O         -0.6658216185        0.9093767759        0.3451698938
 H         -1.5876036891        1.1537198516        0.2203993750
 H         -0.3026009476        0.8420043824       -0.5517676319
