  129
       -218.85543661
 O          2.0981151294       -2.0246126129       -3.2937462269
 H          1.2076699123       -2.3375901505       -3.0317307399
 H          2.6629909260       -2.8104151911       -3.3439249530
 O          2.8894170035        3.5615601729        2.4723251192
 H          2.9976667923        4.4756647136        2.7353296477
 H          2.0656728248        3.2370982700        2.9153659892
 O          2.0838370618        0.6816814795       -3.7508362125
 H          2.1166037710       -0.2899575086       -3.7594854229
 H          2.9962075507        0.9640786793       -3.6050934460
 O          2.5945453670       -4.2651189981       -0.2692173271
 H          3.3881673258       -4.4560781972        0.2542353627
 H          2.8909388017       -4.2302537786       -1.1946490545
 O          5.1969964679        0.4716840601        1.0495025149
 H          4.8819273486       -0.3940298061        1.3805861024
 H          5.8265661391        0.2916275276        0.3360883542
 O         -0.7331049857        0.3214929749       -3.0167450775
 H         -1.1792960159        1.1776563522       -2.8964273457
 H          0.0831583783        0.5020863299       -3.4947704647
 O          0.7745936888        2.5742899633        3.6921215610
 H          0.9194050403        1.6224286403        3.5808758739
 H         -0.1565248860        2.7438824659        3.4808413492
 O         -2.2364377034        2.5569569979       -2.6893985720
 H         -2.2313592893        3.3956810702       -2.1868457508
 H         -3.0437092759        2.5638483877       -3.2241977697
 O         -1.8298213456       -4.4504816367        1.1080431202
 H         -2.3937468108       -5.1552536561        1.4285993295
 H         -2.4290288108       -3.7118804161        0.8530767927
 O          4.2458235148       -1.7816015943        2.2107627727
 H          4.1594112526       -1.4244925667        3.1131545881
 H          3.3301611494       -1.8709166801        1.8632627610
 O          5.2589336595       -2.5037469404       -1.1232424619
 H          5.3288032707       -3.0698997541       -0.3373675876
 H          4.4396786668       -1.9477258732       -0.9812699559
 O         -5.7324289786        0.3544764335       -2.0340295096
 H         -5.4041593670       -0.5603114824       -2.0746126811
 H         -6.2397064178        0.4384111182       -1.2022688662
 O          1.3982414412       -0.1036231603        3.2370071645
 H          2.1727282665       -0.1980369283        3.8235131400
 H          1.5633641643       -0.7011095914        2.4977522642
 O         -3.5074781203       -2.5224995006        0.4134657340
 H         -3.8017193035       -1.7566169116        0.9339302576
 H         -3.8450547198       -2.3822405716       -0.4841825380
 O         -1.1233420392       -1.1931564823        3.5782516365
 H         -1.8525759166       -0.5851255017        3.7588449863
 H         -0.3023614696       -0.6795659110        3.6265057901
 O         -2.3246973473       -1.6385688299       -3.7213911457
 H         -2.4256162678       -1.5833171949       -4.6720837654
 H         -1.7609813012       -0.8644678354       -3.4549980477
 O          6.6390189951       -0.2069303104       -1.2266001887
 H          6.2636544688       -1.1152622904       -1.2616218345
 H          7.5593509512       -0.2667452697       -1.4821036597
 O         -3.2891943275        0.5934572329        3.7851308182
 H         -3.7072422915        0.3316681469        2.9267275086
 H         -3.9289447861        0.3976858542        4.4707926154
 O         -4.4667154291       -2.0797228466       -2.1684482061
 H         -4.8914225369       -2.8530394502       -2.5420717091
 H         -3.6788379154       -1.8904551453       -2.7243921424
 O         -4.3407329586       -0.1125041690        1.4600342281
 H         -5.2773354227        0.0827779888        1.2678286607
 H         -3.8591323541        0.3479551142        0.7471053901
 O          5.0074835868       -4.0849153999        1.1231640105
 H          4.7970154469       -3.2867494291        1.6590593031
 H          5.5599001075       -4.6498859528        1.6632827635
 O         -5.3153637168        4.3023589114       -1.8173215493
 H         -5.1756822594        3.6521966903       -2.5222046302
 H         -4.4440442248        4.6722037666       -1.6217438543
 O          4.3977268325        1.1343916825       -2.2074690461
 H          4.2198688527        1.8455908987       -1.5758837071
 H          5.2930909666        0.8161904046       -2.0152609727
 O         -1.9918078733        2.9486329450        3.4193950963
 H         -2.2617500269        3.6008440569        4.0677000997
 H         -2.4529754982        2.1148873639        3.6426140851
 O          4.8030391769        1.8087878749        3.4233976788
 H          5.1611059296        1.4512666693        2.5951224982
 H          4.1355457182        2.4673966508        3.1573920202
 O         -6.7095542705        0.7528225824        0.4544133058
 H         -7.6261414623        0.6933045507        0.7233098920
 H         -6.4744218366        1.7333166518        0.4957278297
 O         -0.0558768527       -4.9504397611       -0.9148270846
 H         -0.6693622250       -4.8566421172       -0.1644417061
 H          0.8404902933       -4.9055423717       -0.5520968552
 O         -6.0511164562        3.2442899207        0.5575195982
 H         -5.9812541098        3.6641167005       -0.3249600943
 H         -5.1549329546        3.3270772315        0.9243436472
 O         -2.5982439338        4.7128939176       -1.0968749952
 H         -1.9448132144        5.3768931692       -0.8791021930
 H         -2.8292485105        4.2514946740       -0.2542440265
 O         -4.8242797367        2.2845984361       -3.7019802403
 H         -5.2218721480        1.5672997179       -3.1699132435
 H         -5.3699145900        2.3880880790       -4.4819931407
 O          3.1228741934       -0.9891758986       -1.0334238536
 H          3.5228092899       -0.1592301526       -1.3575952943
 H          2.6875513904       -1.3735773142       -1.8221596588
 O         -3.4665895235        1.1545831595       -0.7351008566
 H         -4.2891264070        0.9949495214       -1.2326512943
 H         -2.8577487079        1.6025848316       -1.3556696920
 O          1.7759630459       -2.2153833604        1.2739452727
 H          2.0737023719       -2.8896300196        0.6275392272
 H          1.1644064755       -2.7190998320        1.8891769250
 O          3.7829966672       -0.3461391232        4.4740233737
 H          4.1860517141        0.5056006812        4.1348712819
 H          4.0075024334       -0.4002867789        5.4026947656
 O          1.2727175588        1.5360356611       -1.3026206212
 H          1.5736718441        1.3892834174       -2.2184011583
 H          2.0533729230        1.8147599369       -0.7786892957
 O         -3.3587920908        3.2786549966        1.0198891444
 H         -3.2339492115        2.4687606593        0.4880015419
 H         -2.7321031587        3.2198578745        1.7579237911
 O         -0.2414764181       -2.7372841713       -2.2593712556
 H         -1.0550050624       -2.6604698328       -2.7739101703
 H         -0.2258095803       -3.6263701576       -1.8131039810
 O          3.4176862006        2.2568850732        0.1112141402
 H          3.1931457188        2.8440646607        0.8501508286
 H          3.9954602580        1.5662580687        0.4977915444
 O          3.8436840001       -4.0671469401       -2.7408142197
 H          4.3155003204       -4.7508581407       -3.2158317717
 H          4.5137290394       -3.5106821568       -2.2758435754
 O          0.0993149751       -3.4715344439        2.7847547547
 H         -0.3914739421       -2.7669807800        3.2401293167
 H         -0.5569571841       -3.9134331419        2.2189064060
 O         -0.6338846548        1.9593603905        0.7054658939
 H         -0.8191103557        1.0360557476        0.9369645354
 H          0.0020137316        1.8415374799       -0.0155857836
 O          0.3212870621        4.1338351414       -1.2376407479
 H          0.0165303162        3.9040648668       -0.3548143103
 H          0.6375133093        3.2787492860       -1.5776922242
 O         -0.6180915942       -0.7884550707        0.3691214788
 H          0.2344845023       -1.1956881377        0.5684223870
 H         -0.6739779058       -0.7784947479       -0.5902970522
