  271
       -458.52968821
 H         -1.4075014841        0.2223096524        1.1460377596
 O          0.0205201911       -2.3889641076        0.8306069130
 H          0.4003796284       -1.5382091028        0.5324356594
 H         -0.4010920428       -2.2223175767        1.7039376491
 O         -0.8127510909        0.8682939522        1.7012171575
 H          0.0007697197        0.3865848215        2.0971497345
 H         -0.5459602872        1.7011338766        1.1662264490
 O         -0.7383064836        2.6666254436       -5.9257187600
 H          0.1080564788        2.2895440645       -6.2092040181
 H         -1.4017537002        2.1717836887       -6.4120172612
 O          1.2167582236       -2.6455877616        4.1875662279
 H          0.7057135703       -3.3698036091        3.7802770053
 H          0.6590817415       -2.2725620533        4.8986348428
 O          1.4472309675        6.3807664160       -0.1600432423
 H          1.9126899568        7.1472287668       -0.5039159030
 H          1.0765219333        5.9478277729       -0.9607211780
 O          0.7838199806        0.1541387022       -3.8221097367
 H          0.5402597741       -0.7671763171       -4.0168486050
 H          1.0129483181        0.5599997840       -4.6743857426
 O          3.8835001534        1.0602843919        3.8303176407
 H          3.7985631374        0.1724443041        4.2258726612
 H          3.4242457939        1.0330935005        2.9637201091
 O          1.3326965624        3.3174389024        2.7893975929
 H          0.3997997474        3.1983910529        3.0374507456
 H          1.8352150973        3.3414123894        3.6378535784
 O         -3.6798425587        0.0683492961       -2.1708054715
 H         -3.8470519791       -0.8340740720       -1.8310771330
 H         -3.0114838046       -0.0113077513       -2.8773054500
 O         -1.1476830567        2.8447990102        3.8511106911
 H         -1.3879355610        3.8026779385        3.9509637229
 H         -1.7492923450        2.5089469106        3.1503037268
 O         -0.3812375953        1.3860616484       -1.6708283119
 H          0.0274354753        1.9866427021       -2.3218797311
 H         -0.6105813494        0.5656306849       -2.1453975198
 O         -2.3201715224       -0.6739447861        0.3913138100
 H         -1.8946947266       -0.9026127961       -0.4708147331
 H         -2.5938973839       -1.5117724767        0.8132831471
 O         -2.5506323997        2.0269510281        6.0888662072
 H         -2.0648960460        2.3187333936        5.2952201683
 H         -2.7787708447        2.8155095469        6.5794840815
 O          2.6614491772        1.4454766510        1.4566166618
 H          3.2999809608        1.9202397705        0.8970270706
 H          2.0883183132        2.1325969214        1.8586884561
 O         -4.9684598097        2.2462231221       -3.0778968979
 H         -4.6049041088        1.4207207981       -2.6899527670
 H         -4.9738737889        2.9036691871       -2.3639936484
 O          0.7179359807        1.2898489967        5.0691854653
 H         -0.0172257787        1.8247274797        4.7207802961
 H          1.3940272176        1.9174446335        5.3562009376
 O         -1.1134504694       -1.7452579228        3.1197346880
 H         -1.8655161143       -1.1338874217        3.0218772306
 H         -1.4754783231       -2.5368555575        3.5478285121
 O          1.1328664999       -0.2305455083        2.9257478327
 H          0.8405807121       -1.1097105374        3.2424307320
 H          1.1243502129        0.3459331165        3.7201561564
 O          2.6660504519        0.8669853260       -2.1447779868
 H          2.8897950038        0.1129996980       -1.5623690230
 H          1.9501366936        0.5641111429       -2.7522736763
 O          6.0826985474       -0.3163327724        1.9251536083
 H          5.1389846128       -0.5695553626        1.9273774849
 H          6.4507445223       -0.7967198144        2.6754379403
 O         -6.2741645468       -2.1478327416        0.2768129616
 H         -5.4094644106       -2.1762552396       -0.2007644523
 H         -6.8499275233       -1.6331970160       -0.2944087639
 O         -3.9641446105       -5.5145233282       -0.5424048599
 H         -3.2773865486       -5.8217989936        0.0691091247
 H         -4.6902601402       -5.2281995372        0.0229935775
 O          0.4516910974        5.5777808953       -2.5139712895
 H          1.0524835698        6.2132161225       -2.9213893329
 H          0.6330218685        4.6937956410       -2.9016229460
 O         -4.6140372309        0.6335691116       -5.3771698000
 H         -5.0033388515       -0.1973508087       -5.0596085147
 H         -4.9939266667        1.3281376028       -4.8262139078
 O         -3.2198083070       -5.0838145319       -3.1928492810
 H         -3.2592075294       -5.2785901967       -2.2434446860
 H         -2.8225008685       -4.2028779913       -3.3013506438
 O         -2.1648006553        0.3591189546       -4.4159983210
 H         -3.0298851253        0.4379023243       -4.8812964108
 H         -1.9218553630        1.2638602486       -4.1581236383
 O         -2.8108261805       -0.6611844566        5.6759015786
 H         -2.9106864437       -0.4418177488        4.7249156209
 H         -2.8259563829        0.2032148947        6.1112237844
 O          4.5810245230        4.7157734278        3.6984732861
 H          4.1289233412        4.9388612171        2.8694632411
 H          5.3293926279        4.1608046450        3.4586202830
 O          0.6821318577       -6.9905014576       -2.7821847305
 H          0.9631019483       -7.8430892164       -3.1114194797
 H          1.3992351275       -6.3524712752       -2.9755267210
 O         -2.7002427035        1.8733899083       -0.5527298872
 H         -1.7923499653        1.8254637797       -0.9258852265
 H         -3.1589531878        1.1440505320       -1.0238897348
 O          3.5273647615       -1.3750812496        4.9560431461
 H          2.7950091592       -1.8750322464        4.5574596514
 H          3.2634691155       -1.2807051087        5.8894125468
 O          1.0815869069       -0.1128179310        0.0061148780
 H          1.7037721518        0.4304806413        0.5287477385
 H          0.6042341294        0.4865152721       -0.5992834109
 O         -3.2023882927       -2.9895426756        1.5054362268
 H         -2.8203780750       -3.3941063312        2.2918360234
 H         -4.0493269340       -3.4376701855        1.3771579935
 O          5.7697979235        0.4507980196       -0.6819683405
 H          6.1758077742        0.0747379188        0.1132052545
 H          5.3439771598        1.2683048224       -0.3963731868
 O          2.3140219469       -4.8306796794       -3.0454674518
 H          2.8672059023       -4.5831694617       -2.2835470560
 H          1.4340249032       -4.4396957244       -2.8739686418
 O         -0.7067104816        5.5640929739        1.3543809221
 H         -0.4749526219        4.6212521328        1.2214318521
 H          0.0316883902        6.0541188839        0.9612063110
 O         -6.4711196767       -0.1165466446       -1.7810493928
 H         -5.8791567430        0.0593923306       -1.0151253145
 H         -6.6221026957        0.7284518161       -2.2088029370
 O          0.6329226673        3.0962201505       -3.5180594633
 H          1.5232206463        2.9248922951       -3.8846069766
 H          0.0187686118        2.9992134444       -4.2595024230
 O          3.6344998768       -1.1231013218       -0.6663423505
 H          3.5012044177       -1.1538870685        0.3085337620
 H          4.5117092383       -0.6973943164       -0.7796553434
 O          3.4675651639        4.6347978518       -2.7145259403
 H          4.3505543162        4.3106750438       -2.4652489634
 H          3.2635610335        4.1903622568       -3.5503325131
 O          2.0837932398        3.1099825934       -0.8038899290
 H          2.2525367932        2.2753872979       -1.2837495686
 H          2.4242756208        3.8073435126       -1.3794362331
 O          2.6959173656        7.2185415807       -2.6439921321
 H          3.1012076141        6.3276116653       -2.6347360091
 H          3.2426159684        7.7689390221       -3.2034954969
 O          3.3036628946       -3.8092362408        2.6777942036
 H          2.7418504129       -3.8274056244        3.4578794423
 H          2.7500752091       -4.1143578482        1.9245790100
 O         -1.7136083162       -3.6360207566       -0.7222733594
 H         -1.0669095049       -3.1044694115       -0.2027943767
 H         -1.9996399727       -4.3335608774       -0.1238816006
 O         -0.3613592068       -4.2965954915       -2.9214326890
 H         -0.6611537201       -5.1793754723       -3.1553165326
 H         -0.8336909697       -4.0418750032       -2.0985006913
 O         -1.8709415452       -5.9002085682        1.2038728584
 H         -1.0758219665       -6.1704347484        0.6653650376
 H         -2.0739624669       -6.6497033702        1.7632262642
 O          5.7815670135        3.4176629261       -1.9569097861
 H          6.6917530338        3.6936351115       -1.8558966863
 H          5.4316078648        3.2349719860       -1.0523071986
 O          2.2498880369       -1.2308344263        7.3267524491
 H          2.2254729253       -0.5984278755        8.0446310913
 H          1.3378270469       -1.3243756642        7.0020942354
 O         -4.1210897300       -2.4309334500       -1.2446011077
 H         -3.2821292707       -2.8792426333       -1.0114781292
 H         -4.6082967987       -3.0339448323       -1.8340001957
 O          2.7842026905        3.1581942675        4.9979717060
 H          3.3967043003        3.8936466896        4.8106597646
 H          3.2774020711        2.3610924953        4.7007460751
 O          1.3060903899       -2.2353496518       -1.7825562293
 H          1.9080091485       -2.1710812210       -2.5430911363
 H          1.6100098199       -1.5796300778       -1.1404605979
 O         -1.9326379807        5.3247156431        3.7990586612
 H         -2.8567890056        5.2348914981        3.5310351938
 H         -1.4480994861        5.6124135251        3.0055227807
 O         -5.0026685246        0.3442773771        0.4374776769
 H         -5.1132868662        1.2366548862        0.7932338274
 H         -4.0632674282        0.1045575645        0.4782219346
 O          3.8198708182       -3.7350182767       -1.0605862853
 H          4.7585878659       -3.8791581422       -0.9075759038
 H          3.7198423222       -2.7519806105       -1.0262764764
 O          1.4664590254        1.0439272861       -6.3358983901
 H          0.7749289866        0.4156949117       -6.6410656706
 H          2.2977240446        0.5243997244       -6.2798226289
 O          0.2732064232       -6.5016442711       -0.1260988139
 H          0.9007770322       -5.7711377581        0.0236341068
 H          0.3246741669       -6.7236367780       -1.0726256966
 O         -2.7238734096       -2.4089025242       -3.7925358899
 H         -3.6377296421       -2.0638105519       -3.8538766747
 H         -2.2974300051       -2.2307762980       -4.6320435365
 O         -0.1599325526       -1.1549431131        5.9795107975
 H         -1.1381731691       -1.1314270297        5.9386103843
 H          0.1154045023       -0.2609856529        5.7135545634
 O          0.3393176343       -2.4028482925       -4.6986749133
 H          1.2900244333       -2.5496737513       -4.7350673078
 H         -0.0095865115       -3.0758054661       -4.0813526390
 O         -5.6088914420       -4.4272261807        1.4821019049
 H         -6.1055369205       -3.6950436794        1.0745929795
 H         -5.8821408882       -4.4799687397        2.3987721416
 O         -3.1593387944        6.0120986625        0.3461449282
 H         -3.1940378711        6.9564837567        0.1982899187
 H         -2.2288690921        5.7999276954        0.5986181945
 O         -4.5822221954       -2.6515950058        4.9008630542
 H         -4.1032297583       -1.9646811268        5.3948295520
 H         -5.0223214234       -2.1970862944        4.1666587004
 O         -5.7213271179       -1.2161157738        2.7432125847
 H         -5.8555771691       -1.4851968275        1.8056505704
 H         -6.3677220351       -0.5327444671        2.9206195495
 O         -3.2533621311       -0.1435065606        3.0801924672
 H         -3.2331044307        0.7705081585        2.7421874435
 H         -4.1150118656       -0.5322710400        2.8444276994
 O         -4.3830913986        3.8511434772       -0.9342149303
 H         -3.6488924673        3.1935038383       -0.8264895904
 H         -3.9633599596        4.6973195254       -0.7172555714
 O         -4.2943589386        4.6737139917        2.4107037714
 H         -5.1271717994        4.2570911870        2.1489286498
 H         -3.9979254570        5.2111577966        1.6499211859
 O         -2.4627782783       -3.9300875788        4.0188567277
 H         -2.1072598653       -4.5175992389        4.6842572044
 H         -3.2894964101       -3.5281225645        4.3912538977
 O         -5.3420197743       -1.5485010368       -3.8717350435
 H         -5.6903601408       -2.4466345548       -3.7931374305
 H         -5.7098550563       -1.0632342143       -3.1056315990
 O         -1.6013712606        4.2600448603       -1.3604390354
 H         -1.8488114388        3.7491650788       -2.1499758901
 H         -0.9870616952        4.9331755301       -1.6758150330
 O         -3.0313208914        2.3170504377        2.0564785479
 H         -2.8836935088        2.2081898744        1.0946623076
 H         -3.5160161257        3.1527249576        2.1951968646
 O          3.0005551577        2.8736875950       -4.7843517088
 H          2.6556199732        2.4607074959       -5.5832563253
 H          3.7161622793        2.2834882336       -4.4584518781
 O          5.4242951950       -1.4965325951       -2.9761956580
 H          5.7713268670       -1.7990258751       -2.1254040342
 H          5.5148424042       -0.5349367511       -2.9974271436
 O          5.9510841975       -3.5070519476        1.9597504940
 H          6.1692965226       -2.9667926701        2.7341619067
 H          5.0580842021       -3.8331857237        2.1366968796
 O          3.4869499367       -1.2379971166        1.9478282488
 H          2.6621254411       -0.8200011881        2.2519979525
 H          3.4770160591       -2.1660677895        2.2594094441
 O         -0.1949270909        3.0439275481        0.5158795237
 H          0.6900815882        3.0450756508        0.0805182689
 H         -0.8050310046        3.3725851513       -0.1867770087
 O          6.3413852658       -2.5993686415       -0.5211397765
 H          6.1794586049       -2.8449251308        0.4183912593
 H          7.2794507867       -2.7231316962       -0.6603972258
 O          0.0995434699       -4.7317648969        2.8689538455
 H          0.7127129122       -4.9032599645        2.1465901832
 H         -0.7793405570       -4.8964031246        2.4999428738
 O         -2.4164607851        2.9759878622       -3.6503284136
 H         -3.3802666608        2.8159741604       -3.5686279882
 H         -2.2597137643        3.4608864474       -4.4622650821
 O         -0.6540157586       -0.5633138998       -6.4851236225
 H         -0.3050492697       -1.3982365532       -6.1455210133
 H         -1.1845778443       -0.2044845654       -5.7443870607
 O         -5.6255484952       -4.0829429928       -2.8863423938
 H         -6.1935691372       -4.7337383535       -2.4751842973
 H         -4.8096052477       -4.5713604807       -3.1691741719
 O          1.7864132222       -4.3448779777        0.5625110621
 H          2.4899879387       -4.1483038942       -0.0899622970
 H          1.1632265982       -3.5801293562        0.5425442346
 O         -5.9248657350        2.9546821616        0.9899656132
 H         -6.8478489085        3.0003483898        0.7445924882
 H         -5.4048256865        3.3256234873        0.2296932572
 O          3.6666755669       -0.2903239777       -5.6680574229
 H          3.4318224523       -1.0877128715       -5.1687247686
 H          4.3059658711        0.1762842718       -5.1171304194
 O          4.8173057211        1.2978957504       -3.5548404920
 H          5.3479183166        1.9383864925       -3.0607065635
 H          4.0436232263        1.0958325365       -2.9662829442
 O         -1.1349706990       -1.1825405680       -1.9412423957
 H         -0.2662538534       -1.6351698846       -1.8954881704
 H         -1.6640883528       -1.6763052781       -2.5891456506
 O          5.9633943058        2.2926975172        2.6537050150
 H          5.2484596117        1.9801625751        3.2436602850
 H          6.3510392526        1.4541149934        2.3471173949
 O          3.0855189604       -2.3456265268       -3.8848634900
 H          3.9539812737       -2.0689748355       -3.5067831300
 H          3.0812626632       -3.3164759061       -3.8454166649
 O          4.7139383585        2.9124337280        0.4206073308
 H          4.1227913408        3.6761036725        0.6201086101
 H          5.2516433748        2.7749394375        1.2410254400
 O          6.1051025435       -1.8919790452        4.2225873646
 H          5.1716363812       -1.7418492814        4.4790115891
 H          6.5738888749       -2.1308122010        5.0215301952
 O          3.0861710750        4.8092899268        1.3405083410
 H          2.6022281384        5.4168520610        0.7535924322
 H          2.3864182587        4.3193780338        1.8102652288
