  99
       -167.94216724
 O          3.7176892921        2.1596886589        1.5887386584
 H          3.5574799366        1.2472558934        1.8941427167
 H          2.9659384974        2.6922224145        1.9355655727
 O          1.4584871174        3.3620039538        2.2770032477
 H          0.9675229652        3.7552383057        1.5365321521
 H          0.8298132305        2.7627228516        2.7121656696
 O          0.6912054128       -2.8840736075       -2.2935288191
 H          1.2965217244       -3.3705629040       -1.7055811414
 H          1.2346058040       -2.2060018023       -2.7191346510
 O         -1.9460802222       -1.3270632717        2.8303554449
 H         -1.5820764967       -0.7969012508        2.1081075178
 H         -2.2446317994       -2.1571502647        2.4272434249
 O          0.7331823382       -0.7889272863        3.5803581727
 H          0.2961443137        0.0822894595        3.4563880819
 H          0.3065044020       -1.2052231214        4.3298430591
 O         -3.0389109880        2.3345570387        3.5284112018
 H         -3.4596315921        2.9303489886        4.1489448948
 H         -3.5497099956        1.4973803532        3.5352809150
 O         -0.4783507538        1.5191516010        2.9385958899
 H         -1.3095604911        1.8572558795        3.3061998123
 H         -0.6925208398        1.2216116863        2.0304609999
 O          0.5401291342       -2.1863998063        1.2385079271
 H         -0.2968325536       -2.0637062703        0.7669000322
 H          0.4806257006       -1.7507921822        2.1100723553
 O         -2.9743732829       -3.2036093168        1.1590325884
 H         -3.4085414637       -4.0168035907        0.8959523164
 H         -2.3787331799       -2.9480518876        0.4112814878
 O          2.2977103244       -3.6949069782       -0.2604266809
 H          3.1386529976       -3.4668218311        0.1626658113
 H          1.6280092419       -3.5325253639        0.4156487960
 O          0.7993562641        1.6024941586       -3.6505802263
 H          0.9403034853        1.9562167335       -4.5306189302
 H          0.9635011933        2.3496008721       -3.0262296659
 O         -3.5547159957       -2.2404173808       -2.3760269579
 H         -3.8030561339       -1.3174268078       -2.5650660601
 H         -4.3122779785       -2.6377440255       -1.9121163177
 O         -0.1815633040        4.2059930661        0.2123845811
 H         -0.3768031511        5.1445922325        0.1999266944
 H         -1.0346531420        3.7610580596        0.4307951841
 O          3.8841797303        2.8731511708       -0.9498958714
 H          4.5918838909        3.5198965253       -0.9402955378
 H          3.8053560736        2.5579898604       -0.0108248827
 O          4.4637011317       -2.6473496259        1.1568831067
 H          5.2538145087       -3.1608414070        1.3271870037
 H          4.7145876280       -1.9167897601        0.5575412801
 O         -2.4908752047        3.0717147429        0.8821443412
 H         -2.9269381783        2.3317508963        0.4297872221
 H         -2.6977086606        2.9586131418        1.8213334535
 O          1.3793685169        3.5628042804       -1.9733577916
 H          2.2810198455        3.4898646626       -1.6241572856
 H          0.8084270796        3.8207265678       -1.2293772717
 O         -3.9256730786        0.4400270131       -2.7648303000
 H         -3.0603981721        0.5083725823       -3.2564987713
 H         -4.5757808287        0.8872749295       -3.3070645867
 O         -1.6906185411        0.4286518819       -4.0708906618
 H         -0.8440617538        0.8441487764       -3.8541970827
 H         -1.5133176584       -0.5247247483       -4.2184592140
 O         -4.8317418977       -1.2135430666        1.1402328799
 H         -4.8874871979       -0.8204978782        2.0238966568
 H         -4.1660487592       -1.9319354834        1.1998776238
 O         -1.3687753391       -2.2450088131       -4.1451553639
 H         -0.6595838333       -2.6695840654       -3.6462226106
 H         -2.1975807838       -2.4999160000       -3.7180344617
 O         -5.6717311726       -2.9996600209       -0.8198556961
 H         -6.5827624591       -3.0899374621       -1.1005449973
 H         -5.6448942402       -2.3097473884       -0.1391648725
 O          2.1626831918       -0.6060174225       -2.9296509152
 H          3.0710922213       -0.2831809591       -3.0261793593
 H          1.5995649666        0.1227732389       -3.2604730280
 O          4.7593791480       -0.3907265307       -0.2552148995
 H          4.7839124868       -0.1534863585       -1.1959366819
 H          5.3444371868        0.2547637696        0.1898138814
 O          6.2535734031        1.5564911281        0.8940320857
 H          5.4848394722        1.9676595167        1.3265602360
 H          6.9223099698        1.4331722434        1.5683262248
 O          3.1694322859       -0.4025990534        2.3285373739
 H          3.6105810151       -1.2507473919        2.1895373031
 H          2.4092298988       -0.5733048658        2.9025844174
 O          4.4827225075        0.8624487551       -2.6662713431
 H          4.2369866662        1.6375134606       -2.1143934393
 H          5.1781287894        1.1461855376       -3.2602378487
 O         -4.1509801575       -0.1325551403        3.6248280636
 H         -4.4388471902       -0.4623628406        4.4770142276
 H         -3.2945881914       -0.5895515800        3.4124408225
 O         -1.4504732343       -2.2314644617       -0.7544451060
 H         -2.2049629809       -2.1673670934       -1.3841220336
 H         -0.7022722171       -2.5616344187       -1.2901005809
 O         -3.4555049001        0.7021192277       -0.1346445348
 H         -4.0470285286        0.0441347951        0.2888427166
 H         -3.6424917927        0.6589130334       -1.0921421085
 O         -0.9755605666        0.1442422024        0.8084765294
 H         -0.1108247567        0.1188526758        0.3296932177
 H         -1.6885358431        0.3252689900        0.1808614413
 O          1.4632236915        0.2606478650       -0.2473593884
 H          1.6973179455       -0.0804963613       -1.1226530884
 H          2.0336274773       -0.2010474529        0.3793184653
 O         -7.1720742158       -0.0488029600       -0.0442325505
 H         -7.4794525725        0.6149917131        0.5737270747
 H         -6.2929472823       -0.3116103954        0.2539340207
