  99
       -167.94557978
 O         -0.1578697608       -1.6011549713       -3.4937885996
 H         -0.3201172949       -2.5432331024       -3.3467008320
 H          0.2178445359       -1.2753344169       -2.6509911192
 O          2.0842461173       -1.5515398789       -4.8842000793
 H          1.1849886712       -1.4689120231       -4.4727531367
 H          1.9512505253       -1.8666181132       -5.7791312619
 O         -0.7218748478       -0.1857733292        3.7343790796
 H         -0.0392672490       -0.8762573117        3.6346766519
 H         -0.2434644670        0.6645365807        3.7368263014
 O         -1.3622230142        3.6905433141       -0.6441323527
 H         -2.1983954038        4.0911338495       -0.8854600335
 H         -0.8537863015        3.5932121571       -1.4904278033
 O         -3.9843268682        0.1666753821       -1.8430134683
 H         -4.4679849663        0.7411527247       -1.2296576952
 H         -3.8787769648       -0.6712356783       -1.3577201329
 O         -2.3025924839       -0.1363332496        1.6053213971
 H         -1.7422923216       -0.3014209036        2.3975056066
 H         -2.8334622992        0.6620832513        1.8305953473
 O         -5.3598504991        1.2554843365        0.2981745007
 H         -5.3849236231        0.4528425922        0.8747568816
 H         -6.2724766538        1.5026556361        0.1451041127
 O          4.0129616236        0.2486627761       -4.2893489692
 H          4.4214682816        0.5187112800       -5.1142829900
 H          3.2988860213       -0.3811778808       -4.5293646341
 O         -0.1742924262        3.0013114163       -2.8837799409
 H         -0.7352612927        2.2277718430       -3.0611641423
 H          0.7360365073        2.6694285015       -2.8907204657
 O          2.7480021356        0.2781579812        3.0445705876
 H          2.1612174912        1.0297248918        3.2008260228
 H          3.2997271405        0.5109696477        2.2773689664
 O          0.6542837921        2.1529660427        3.4916359374
 H          0.0129302855        2.7001114516        2.9755129893
 H          0.8327098536        2.6471461549        4.2932487374
 O         -1.5618731892        0.6409414567       -2.7274398700
 H         -1.3057389958       -0.1316342205       -3.2489665076
 H         -2.5180741854        0.5275464002       -2.5074485496
 O         -3.4862381080       -2.6158970796        2.8988659060
 H         -2.5641927689       -2.7296848764        2.5535834993
 H         -3.7653595189       -3.4822055768        3.1967641878
 O          0.2700533062       -4.1409119309       -2.4284820081
 H          0.3029095313       -5.0974170364       -2.4027512794
 H          1.1934700980       -3.8188178986       -2.3408151644
 O         -3.1203084367       -0.7776628458        4.9139121666
 H         -3.3034829812       -1.5041823369        4.2905973698
 H         -2.2136444390       -0.4985937937        4.7081526743
 O         -3.5594840669       -1.8658325176       -0.0811498243
 H         -4.3103285992       -2.3100902705        0.3157968520
 H         -3.1692784422       -1.3068052737        0.6229000068
 O          2.3148186908        1.7495027081       -2.6466711937
 H          2.8583138073        2.2917822466       -2.0378150497
 H          2.9251150280        1.3935746470       -3.3098583627
 O         -0.9400377692       -2.3756025982       -0.6586093847
 H         -0.6490827081       -3.1239185524       -1.1997616476
 H         -1.9063775739       -2.3280221712       -0.7136094455
 O          4.0533429544        0.9175158637        0.7423047670
 H          3.9995662875        1.7720674270        0.2920679180
 H          4.8769884902        0.5057783328        0.4389695372
 O         -1.0391354100       -3.0172746768        1.9821078427
 H         -0.2287094004       -2.7016508182        2.4014847833
 H         -0.9587034231       -2.7934759930        1.0342691075
 O          1.2847111121       -1.9027456157        3.1565392100
 H          1.6950326486       -2.4805120386        3.8014494918
 H          1.9046252649       -1.1369977322        3.0459400537
 O          5.8273164384        1.7812836932       -2.3575509733
 H          6.1509314385        1.1483222056       -1.6878934591
 H          5.3914081031        1.2524062830       -3.0326515436
 O         -4.8602345934        1.0408298644        4.2286274937
 H         -4.1921367540        0.3832633672        4.5733709726
 H         -5.3204897324        1.3868881707        4.9930869359
 O         -5.3698953560       -0.6846615402        2.1211703571
 H         -4.7144099071       -1.3623649300        2.3513886168
 H         -5.4125908389       -0.1055978408        2.8990833597
 O         -3.5733925922        2.1390958520        2.1360199992
 H         -4.2385594167        2.0864562457        1.4269381269
 H         -4.0443777885        1.9122149744        2.9618353721
 O          6.2524054492       -0.1967774375       -0.5385977329
 H          5.8688370061       -0.8482976667       -1.1723739328
 H          7.0687203284       -0.5748484779       -0.2102523608
 O          3.9838736890        3.0905476174       -1.0264500387
 H          4.1257201321        4.0351435293       -0.9578981942
 H          4.7647469434        2.7149914880       -1.5119355826
 O          5.1445633645       -1.6588720883       -2.4516886986
 H          4.8460582882       -1.0315429690       -3.1241886174
 H          4.3913987056       -2.2482108810       -2.2811578195
 O          2.6079116037       -2.7591978615       -2.4212910476
 H          2.2313633775       -1.9943556155       -1.9433373227
 H          2.5639492083       -2.5167292974       -3.3601300929
 O         -1.1695515875        3.4874331924        2.1380691899
 H         -2.0573603347        3.1016646118        2.2214033564
 H         -1.0947104511        3.7993819972        1.2272969689
 O          1.2694680250       -0.5618403112       -1.5607659828
 H          1.6357767944        0.2449280052       -1.9610631456
 H          0.6861820169       -0.1991096420       -0.8481841586
 O         -0.1493809703        0.8034064330        0.1908226742
 H         -0.9325599294        0.4008613034        0.6070876042
 H         -0.4701446534        1.5877561814       -0.2642275982
 O          1.7113729992       -2.7924473423        0.3370442673
 H          0.8808731667       -2.4444661260       -0.0077766657
 H          2.1553028602       -2.0321414301        0.7151894267
