  146
       -243.92839651
 H         -0.3910071908        1.7711644068       -0.7034721929
 C         -0.8796386284        0.8421676890       -0.4080280470
 H         -0.6082474256        0.0630290177       -1.1199711824
 C         -2.3900252284        1.0558512156       -0.4040834634
 H         -2.6815437572        1.3818212515       -1.4009062965
 H         -2.6384654006        1.8502762708        0.3067289099
 N         -3.0837608586       -0.1948604779       -0.0964976385
 H         -3.1138921338       -0.3349406081        0.9072057770
 H         -4.0489104143       -0.1428261644       -0.4246626704
 O         -0.3778005510        0.4151101183        0.8558580797
 H         -0.5123101346        1.1656602719        1.4884567513
 O         -1.8912302629       -2.3099852672       -1.0895450793
 H         -2.3222076207       -1.4655133783       -0.7233406265
 H         -1.1766008999       -2.0220747699       -1.6804756384
 O          4.5508479433       -1.4467962269       -1.1819090002
 H          3.7046605192       -1.8610664334       -1.4218671702
 H          4.7754145454       -1.7669342616       -0.2971576228
 O         -2.5059299752       -3.3499370184       -4.8570416303
 H         -1.5686274575       -3.5980501454       -4.8191148348
 H         -2.5268855801       -2.3813610834       -4.8618384138
 O          4.3907065711       -1.3040518577        4.1152556376
 H          3.4316579688       -1.1854145226        4.0280270336
 H          4.7082579336       -1.6070875659        3.2528769820
 O          1.1057611020       -5.0051808805       -2.2962381244
 H          1.6751158656       -4.2777528259       -1.9895448597
 H          0.4179712232       -5.0868785972       -1.6077004354
 O         -0.7362346166       -4.6717943157       -0.3230339967
 H         -1.0970834421       -3.7949520654       -0.5485626601
 H         -1.5293120609       -5.2491743666       -0.2563026463
 O         -3.5188892238       -3.9469941633       -2.4552625629
 H         -3.1745002207       -3.9841426164       -3.3734309261
 H         -2.8657735149       -3.4010989530       -1.9677271438
 O         -3.1990706660       -5.6817185711       -0.2589170932
 H         -3.5676120053       -5.0976582428        0.4182666628
 H         -3.5006051204       -5.3261860404       -1.1093461141
 O          2.3998480187       -2.1478157761        1.3476596651
 H          3.3503058346       -2.3040238952        1.4571164044
 H          2.1222442832       -1.6136361637        2.1325925899
 O          0.2503671767       -3.7947415641        2.0087301287
 H         -0.0481836032       -4.2918572116        1.2192493832
 H          1.1095900439       -3.4095856439        1.7840571869
 O          5.1586196180       -2.2039433868        1.5012849474
 H          5.6054307175       -3.0450615313        1.6051681532
 H          5.8960520444       -1.5158531065        1.4499534444
 O          2.0538252397       -2.5808177991       -1.4097350237
 H          1.3323746221       -2.0974037493       -1.8603710654
 H          1.8888421917       -2.5382357020       -0.4591544338
 O         -0.7631349910        2.6323118149        2.2523550250
 H         -0.8004611554        3.2645046874        1.4969110474
 H         -0.1175896261        3.0216604183        2.8695776493
 O         -1.4693616409       -1.8309220392        2.1037631175
 H         -0.8235104931       -2.5890821768        2.0911489938
 H         -1.1001440735       -1.1410401040        1.5231335846
 O         -0.6784000084        4.2988659890        0.1889932858
 H         -0.2489987795        4.0170741997       -0.6370011814
 H         -1.6007369627        4.5416812825       -0.0536503828
 O         -0.7748762399       -0.7401045506        4.3765208362
 H         -1.1077215995       -1.1923540560        3.5540022984
 H         -0.8808689017       -1.3650198816        5.0939254915
 O          2.1559215186        0.2011045556        0.0471316805
 H          1.2563491273        0.3334831511        0.4082235494
 H          2.4257237858       -0.6777504086        0.3704747700
 O          2.8001174232        4.2408747549       -0.2482856671
 H          2.3713836240        4.7949367563        0.4447627429
 H          2.1472703427        4.1412068333       -0.9472996686
 O          0.1774760280       -3.7591351835       -4.3782310842
 H          0.8366130045       -3.8311062989       -5.0685937334
 H          0.4863275785       -4.3498237383       -3.6306022344
 O         -4.9189666371       -1.8138859371       -3.1101965883
 H         -5.4137878144       -1.9950308885       -3.9093844880
 H         -4.5334000554       -2.6778990034       -2.8161900248
 O         -4.6764152640        0.7021960100        2.6482170324
 H         -5.3515238317        0.7467348061        3.3270558479
 H         -3.8181919798        0.9056170709        3.1178696461
 O          7.0627023105       -0.4882621412        1.3633084348
 H          7.3602554323       -0.2216993117        0.4689509996
 H          6.8078193194        0.3458809854        1.7947897651
 O          0.8398592379        0.4709790661       -4.2545321488
 H          1.5461915681        0.8498717900       -3.6978659234
 H          0.1157527780        1.1108219549       -4.2511677020
 O          1.3469388004        5.5100749568        1.5898007372
 H          1.3194946907        5.0301105746        2.4303276766
 H          0.5172059942        5.2896896010        1.1330637516
 O          1.1317771559        3.7967844043        3.8104572025
 H          1.1404608464        3.9847938651        4.7485082327
 H          1.8111053903        3.0946753854        3.6502056761
 O          0.5243366601        3.2937859490       -2.0922668181
 H          1.2812239700        2.6956421381       -2.2377721261
 H         -0.1711139800        2.9772415833       -2.6858179203
 O         -3.6367437831       -3.1840071425        1.0582414386
 H         -2.9306315631       -2.7778154567        1.5926784670
 H         -3.3969351094       -2.9817225743        0.1480309795
 O         -5.8016879518       -0.2640901865       -1.0416503410
 H         -5.6377616922       -0.8763100664       -1.7750941805
 H         -6.0276378749       -0.7962509480       -0.2507132816
 O         -0.0093139525       -1.5496239689       -2.8685454963
 H          0.0498294723       -2.3170216938       -3.4774618035
 H          0.3334831127       -0.7771862367       -3.4030417272
 O          6.1816084348        1.9803429530        2.1565008157
 H          5.3567925552        2.0528979815        1.6379834300
 H          6.7600772809        2.6800708092        1.8513377688
 O          7.6590415418        0.5237701234       -1.0706141949
 H          6.7777746951        0.8627546121       -1.3424611379
 H          7.9634601031       -0.0334161369       -1.7870408321
 O         -5.8304475946       -1.5499033422        1.3113040611
 H         -5.4256421047       -0.8198196833        1.7993895279
 H         -5.1564521192       -2.2532220320        1.2779983532
 O         -3.2154049110        4.6186915674       -0.4800097521
 H         -3.3288373205        4.2455395127       -1.3720881838
 H         -3.7579950349        4.0754288482        0.1072067619
 O          4.9624800001        1.3049614055        4.5920531639
 H          5.6162104983        1.5383934377        3.9180551413
 H          4.8914165424        0.3281927536        4.5740697573
 O          1.7905061329       -0.6132318436        3.3952775396
 H          0.9093510716       -0.6092208931        3.8078846903
 H          2.0693324851        0.3265872648        3.3190502787
 O         -4.8856414295        2.9329902058        1.1168995691
 H         -4.7985396086        2.0804824267        1.5976612041
 H         -5.4533606483        3.4927326640        1.6476563951
 O         -1.4983022876        1.9316305665       -3.6079924789
 H         -1.9144029195        1.0714832364       -3.8002995153
 H         -2.2426132832        2.5306702571       -3.4369668773
 O          2.7994748563        1.8533478940        3.2530651477
 H          3.5785469190        1.7202209612        3.8609541154
 H          3.1885106863        2.0234409853        2.3716671933
 O          2.4931990227        1.4278914332       -2.3553309491
 H          3.4622809989        1.5163307645       -2.3705774044
 H          2.3077597512        0.8823213998       -1.5682711977
 O         -2.5297719692       -0.6382973186       -3.8905792177
 H         -1.8092834221       -1.0035311221       -3.3563156051
 H         -3.3735713559       -0.9041585359       -3.4832141866
 O          3.8536537663        2.0899315037        0.7635626500
 H          3.2195580043        1.3844071627        0.4979413841
 H          3.4944987482        2.9353009943        0.3814058312
 O         -2.4984215419        1.3689321960        3.9011559348
 H         -1.9608893256        1.9320162864        3.3136586731
 H         -1.9001251669        0.6594795424        4.1902429051
 O         -5.7257489602        2.3974262297       -1.4872047077
 H         -5.8505002656        1.4323784263       -1.4472797505
 H         -5.4981811398        2.6503567948       -0.5777630524
 O         -3.7515970400        3.3759539579       -2.8911383534
 H         -4.1421880946        3.9651236927       -3.5370492056
 H         -4.5163725703        2.9323974453       -2.4292733456
 O          5.0861844487        1.1445370495       -1.5502928182
 H          4.8802892690        0.1861631687       -1.4654707658
 H          4.8192911020        1.5499217832       -0.7071327658
