  117
       -193.22647258
 H          0.2111888536       -0.5637291074        0.0313206464
 C          0.9839355584       -0.9329314589       -0.6425970046
 H          1.0896882735       -2.0087093414       -0.4989289951
 C          2.3153296734       -0.2711672377       -0.2995051389
 H          3.0934425591       -0.6543674286       -0.9565809475
 H          2.5652486224       -0.5076666829        0.7314980757
 O          0.6077092230       -0.7319594672       -1.9889248075
 H          0.1755783948        0.1335297448       -2.0851001399
 N          2.2249887489        1.1886910881       -0.4646664701
 H          3.0873466430        1.6672923348       -0.1234197570
 H          1.4217877993        1.5756421567        0.0811070444
 H          2.0844058117        1.4179161833       -1.4848363739
 O         -0.8698888477       -4.0850788410       -0.5170798014
 H         -1.6361966087       -4.5220915869       -0.1277374803
 H         -0.1481013162       -4.1481463029        0.1482683166
 O         -2.0167182368       -1.7545723486       -0.8985154404
 H         -2.9575440213       -1.9937876892       -0.7708842247
 H         -1.5036860193       -2.5775831684       -0.7255984925
 O          0.2250387990       -3.2670790986       -2.9942543960
 H         -0.1709698074       -3.7465154540       -2.2535034497
 H          0.2278715078       -2.3301820767       -2.7388249086
 O          4.3161709503        2.6653845949        0.5368764505
 H          3.7334880204        3.4047894637        0.7743314622
 H          4.8255025280        2.9741985971       -0.2405885088
 O         -2.0745394286        1.0630017822        3.8383226761
 H         -1.4004205765        1.5806643673        4.2868925202
 H         -1.5685818707        0.5161664632        3.1890559006
 O         -4.6413658731       -2.1044727720       -0.5079142413
 H         -4.8757519161       -1.6398333186       -1.3273596276
 H         -4.7454480013       -1.4469222920        0.2133203945
 O          3.8969980801       -1.5811582890        2.1276274217
 H          4.5613382266       -1.0002372708        1.7275424980
 H          3.7862181689       -2.3169047742        1.5025599716
 O          2.8849408416        4.1245255237       -2.2042862890
 H          3.8432004585        3.9789604988       -2.1744078777
 H          2.6060911009        4.3065818680       -1.2916603238
 O         -2.1310903325       -0.9436404955       -3.4310021904
 H         -1.7672799124       -1.6137634419       -4.0124179847
 H         -1.9071335590       -1.2308783550       -2.5177498953
 O         -4.3112094180        1.7441132239       -1.1965209949
 H         -4.5091795126        0.9999188073       -1.7957824972
 H         -3.5681982508        1.4289045715       -0.6436722283
 O          2.2207637260        4.3974578495        0.5086442533
 H          1.5267539177        3.7397450761        0.7623680437
 H          1.8743380854        5.2611331468        0.7343982478
 O          1.0740370789       -4.1362006138        1.2762018224
 H          1.9608383108       -3.9094705797        0.9476565136
 H          0.9870663072       -3.7757927725        2.1703182527
 O          0.4925300888        2.4900815447        1.1437140252
 H         -0.3704749082        2.9271133205        0.9078350266
 H          0.4624444609        2.2635952606        2.0900820320
 O         -3.5103326711        2.2014879782        1.8868600866
 H         -3.0766522672        1.9154494561        2.7183453946
 H         -4.3873366942        2.5320288320        2.0958442005
 O          1.9301625197        1.8424022018       -3.0620633900
 H          2.2813950413        2.7573083603       -2.9269440957
 H          0.9668559005        1.9193496185       -3.0427051321
 O          5.4777591576        3.2330835985       -1.8106299018
 H          6.3024527044        3.6241237691       -2.0999104200
 H          5.5352023969        2.2636620886       -2.0193335364
 O          0.7304086400        1.7758719664        3.7967672183
 H          1.3552703337        2.2727378424        4.3255598875
 H          1.0917150079        0.8717443723        3.7189440665
 O         -1.9909513832       -2.6793072411        2.5555142723
 H         -2.7030724268       -2.2450264221        3.0887968617
 H         -2.4358483695       -3.2698338873        1.9241988464
 O         -3.4154500393       -4.2307751928        0.7614674327
 H         -4.0177826990       -4.8938242347        1.1006653110
 H         -3.9559100112       -3.5861302399        0.2721514482
 O         -4.7270135238       -0.2026561718        1.3875277815
 H         -4.0090980541        0.4557351999        1.3255989961
 H         -5.5310924180        0.3354001147        1.3182336362
 O          5.5634140532        0.6230892884       -2.0406865093
 H          5.5589371532        0.2541527367       -1.1448235116
 H          4.8615271035        0.1734279797       -2.5446283547
 O          1.6157482523       -0.7675697000        3.3020956240
 H          1.2626653949       -1.5863773691        3.6894932062
 H          2.4891421278       -1.0196355521        2.9377218720
 O          2.8791063258       -3.0470162028       -2.3764660315
 H          1.9780291704       -3.2900468658       -2.6728964766
 H          3.0428255328       -2.1663561989       -2.7406898796
 O         -0.7472559849       -0.3834298822        2.0405344328
 H         -1.1840639447       -1.2606604299        2.1056807771
 H          0.1469988509       -0.5027557129        2.4104287950
 O          3.4352959561       -0.4320046602       -3.4175968468
 H          2.7951656697        0.3032227479       -3.3870685882
 H          3.6158363611       -0.5993623555       -4.3439042381
 O          5.5361530246        0.2239627067        0.7593987305
 H          6.4386181837        0.2665787892        1.0799588101
 H          5.1516078525        1.1094331777        0.8785248273
 O         -2.1032088917        0.7134273385       -0.0073889727
 H         -2.0855321726       -0.2009189297       -0.3664179677
 H         -1.6502189549        0.6420725789        0.8459639190
 O          0.3390428661       -3.1338180235        3.7913275642
 H          0.2533863700       -3.7565386113        4.5134538424
 H         -0.5562498808       -3.0267281226        3.3995612886
 O         -6.1956698792        1.9912968858        0.7706034690
 H         -7.0371846047        2.3366709157        0.4737832551
 H         -5.5821503140        2.0302183481        0.0081790010
 O         -4.6623476285       -0.4758109294       -2.7663031441
 H         -5.2231088868       -0.4889321110       -3.5422701048
 H         -3.7375343391       -0.6272500684       -3.0854015451
 O         -0.5172743179        1.8367574629       -1.8568489327
 H         -1.0621645997        1.4859560919       -1.1204162164
 H         -1.0814016551        2.5148932094       -2.2466432831
 O         -3.7952562385       -1.2023896691        3.7738233543
 H         -3.3188112985       -0.4243726160        4.0936959604
 H         -4.2978605187       -0.9049759397        2.9947806988
 O          3.4827773665       -3.4694776179        0.1493598787
 H          4.0607492262       -4.2337282765        0.1285570440
 H          3.2519684578       -3.2894174135       -0.8002316456
 O         -2.6223461800        3.6289986199       -2.1121110654
 H         -3.3401133947        2.9991583806       -1.8804421729
 H         -3.0310885611        4.3836562633       -2.5352491989
 O         -1.7079152522        3.7361179231        0.5421806506
 H         -1.9402296156        3.7727278184       -0.3992081931
 H         -2.4166993375        3.2287456672        0.9792094403
