  99
       -167.97099488
 O          1.5023509468       -4.5057659751        1.5260045331
 H          1.8837958655       -3.5919501709        1.5165275775
 H          2.0227604552       -5.0135689020        2.1484526310
 O          3.3805889105       -1.8019295633       -3.9454998902
 H          4.0972276764       -1.6714278914       -4.5670236128
 H          3.1038724947       -0.9054844126       -3.6542431340
 O         -1.8023770837        1.4652096193        1.3703046578
 H         -1.7188632812        1.1057819947        0.4257283805
 H         -2.2196631635        0.7232175551        1.8424663320
 O         -1.1269088662       -2.5285642118        3.8909730143
 H         -0.2206577489       -2.1142786472        3.8031011258
 H         -1.2546587077       -2.6899355771        4.8254347494
 O         -1.2392411765       -4.3228584573        1.7766954054
 H         -0.2966160545       -4.5082691435        1.6227400865
 H         -1.2644022978       -3.7974515361        2.5934218910
 O         -1.9111404822       -2.5232002764       -0.0023675377
 H         -1.7389330844       -3.2986623963        0.5935626008
 H         -2.8278123261       -2.6039899697       -0.3458025812
 O          1.9230887009       -4.7798022958       -1.2133559724
 H          1.2229016754       -4.1945157276       -1.5398374589
 H          1.7811451863       -4.8399299244       -0.2562927178
 O          1.1753096871       -1.3354095530        3.6738234517
 H          0.9278881620       -0.4080709538        3.5229549401
 H          1.7355689878       -1.5873332783        2.9190408015
 O          2.7880381805        1.5002996188        1.7975273934
 H          3.2371857583        2.0919618394        2.4038827738
 H          1.9193908207        1.3011017869        2.2126957340
 O          2.1460981006        3.1878730839       -0.2871033019
 H          1.3358598477        3.5459303299        0.1171618325
 H          2.4642830765        2.5252388961        0.3507147456
 O          0.4041427061        1.2071708092        2.9726864560
 H          0.4890150589        2.0887173995        3.3824574353
 H         -0.3758320247        1.2667793062        2.3858559670
 O          2.5763404862       -2.0879078945        1.4239527778
 H          2.2313387647       -1.6424730864        0.6255699165
 H          3.5280553893       -2.1902384296        1.2320743774
 O         -2.5533113683       -1.0135378210        2.1604816777
 H         -2.2633807232       -1.4758970295        1.3429348660
 H         -2.1168844421       -1.4985917145        2.8857930652
 O         -5.7278491603        1.1291457753        0.2189871041
 H         -5.6061149761        0.3826416302        0.8238148330
 H         -5.5910809147        0.7650746394       -0.6699156249
 O         -3.4430633403        2.3107812299       -2.4141661923
 H         -2.7215381668        2.8504606302       -2.7762519571
 H         -3.6172531076        2.6686429652       -1.5157852295
 O         -4.4211815381       -2.1965082644       -0.8277285941
 H         -4.5899822754       -1.4635757056       -1.4374620854
 H         -4.8422555707       -1.9381120771        0.0082740637
 O          2.6484677469        0.5811958525       -2.9311372011
 H          2.3230122748        0.1294222332       -2.1348046950
 H          3.4210524687        1.1183206394       -2.6203110653
 O          4.4704254130        2.0984682212       -1.7812101394
 H          3.9075995553        2.7611539597       -1.3656553468
 H          4.7893343284        1.5259133890       -1.0522242735
 O          0.7299689644        3.8359264568        3.4770710263
 H          0.4571283945        3.9860305761        2.5470712619
 H          0.2791914658        4.4970524379        4.0020054635
 O         -3.7922852108        3.0022352956        0.1771852303
 H         -4.6081864852        2.4707370385        0.2830054341
 H         -3.1215681713        2.5399021529        0.7106213720
 O         -1.2653506148        3.8768065901       -3.0229879112
 H         -0.3659216943        3.4732492220       -2.9470595660
 H         -1.2022178695        4.5093096552       -3.7393020470
 O         -0.0537356116       -2.9402830203       -1.8960428207
 H         -0.4929587363       -3.1579325001       -2.7182775820
 H         -0.7528060066       -2.8130116292       -1.2128353996
 O          4.1671707061       -3.3917986497       -1.8529867162
 H          3.4078601552       -3.9779736148       -1.6593962870
 H          3.8819567939       -2.8316982011       -2.5991204671
 O         -1.9770224522        5.0122126453       -0.5869945716
 H         -1.7344774310        4.6740976498       -1.4672573340
 H         -2.7734617637        4.5302854905       -0.3220177432
 O         -0.2275050362        3.7851898907        0.9599399294
 H         -0.7628784675        2.9896210894        1.0885132144
 H         -0.8005491634        4.3883110607        0.4273214658
 O         -5.0126111041        0.1333363100       -2.3164008608
 H         -5.6780848901        0.1732014435       -3.0039273800
 H         -4.4209198773        0.8994439683       -2.4610849612
 O         -5.1601404902       -1.1976378139        1.6660128234
 H         -5.6233771273       -1.6085969449        2.3955512904
 H         -4.2177815100       -1.0982848306        1.9386654945
 O          1.1827414876        2.9066894326       -2.8318718719
 H          1.6357386528        2.0931282539       -3.1181150381
 H          1.5762508565        3.1183063829       -1.9655564981
 O          5.0033255952       -2.2773104494        0.3252871191
 H          5.8651151737       -2.6612553533        0.4845935379
 H          4.6836568779       -2.6696286066       -0.5417712267
 O          4.9588026408        0.4894344266        0.3249681776
 H          5.0078393683       -0.4782013148        0.2563809913
 H          4.1836778200        0.6835104583        0.8691071175
 O          1.4803034264       -0.8638473572       -0.8371677386
 H          1.0754695039       -1.6285216394       -1.2821535241
 H          0.7406245159       -0.2628102693       -0.6441373580
 O         -0.6714597497        0.9124178232       -0.9894620004
 H         -0.9700274499        0.4137686049       -1.7730856466
 H         -0.2846003195        1.7295136601       -1.3209344581
 O         -0.8724803075       -0.3042977569       -3.3950340276
 H         -1.2916241789        0.2347100620       -4.0679833031
 H          0.0494201252       -0.4292266774       -3.6396915505
