          15
 SCF done      -1.28970364
H             -0.5425054112           -1.1597996585            0.9180873603
C             -0.6112510051           -0.5412956740            0.0100749183
H             -0.5391308395           -1.1969144470           -0.8712436601
C              0.5103658647            0.5037878336           -0.0094871839
H              0.3911098457            1.1518924073            0.8600966290
H              0.3944399221            1.1152669956           -0.9056411629
O             -1.7891825170            0.2100258093           -0.0077307040
H             -2.5646581753           -0.3620747641            0.0026734602
N              1.8637421187           -0.1172780949            0.0059475209
H              1.9871272141           -0.7237037740           -0.8163106223
H              1.9839787968           -0.6890763206            0.8531041602
H              2.5930828886            0.6072400317           -0.0077051379
O              4.1012492286            0.8076835844           -0.3086741406
H              4.4205594322            0.4318170424            0.5119227600
H              3.7297182756            1.6714492581           -0.1411363931
          18
 SCF done     -13.50008733
H             -0.5425054112           -1.1597996585            0.9180873603
C             -0.6112510051           -0.5412956740            0.0100749183
H             -0.5391308395           -1.1969144470           -0.8712436601
C              0.5103658647            0.5037878336           -0.0094871839
H              0.3911098457            1.1518924073            0.8600966290
H              0.3944399221            1.1152669956           -0.9056411629
O             -1.7891825170            0.2100258093           -0.0077307040
H             -2.5646581753           -0.3620747641            0.0026734602
N              1.8637421187           -0.1172780949            0.0059475209
H              1.9871272141           -0.7237037740           -0.8163106223
H              1.9839787968           -0.6890763206            0.8531041602
H              2.5930828886            0.6072400317           -0.0077051379
O              3.8292044950            1.3549629504            0.3780675494
H              4.4903667252            0.6752194295            0.2316695778
H              3.5500379675            1.3134224601            1.2945592152
O              1.5221378271           -1.7924332679           -1.8352094471
H              1.0350233173           -2.3967172607           -1.2684634173
H              0.8845426261           -1.3016785125           -2.3615360034
          21
 SCF done     -18.79035293
H             -0.5425054112           -1.1597996585            0.9180873603
C             -0.6112510051           -0.5412956740            0.0100749183
H             -0.5391308395           -1.1969144470           -0.8712436601
C              0.5103658647            0.5037878336           -0.0094871839
H              0.3911098457            1.1518924073            0.8600966290
H              0.3944399221            1.1152669956           -0.9056411629
O             -1.7891825170            0.2100258093           -0.0077307040
H             -2.5646581753           -0.3620747641            0.0026734602
N              1.8637421187           -0.1172780949            0.0059475209
H              1.9871272141           -0.7237037740           -0.8163106223
H              1.9839787968           -0.6890763206            0.8531041602
H              2.5930828886            0.6072400317           -0.0077051379
O              3.9573780518            1.3236562545            0.2839328505
H              4.6779671783            0.8600559783           -0.1464960906
H              4.0456639907            1.1999619284            1.2300267410
O              1.7277363750           -1.7510237817           -1.9399068558
H              1.2142623825           -2.4422392404           -1.5166242646
H              1.1117017507           -1.2557620149           -2.5099623056
O             -0.2493178322           -0.1256963122           -2.8208836858
H             -1.2047594554           -0.1988110672           -2.7704817975
H             -0.0530759309            0.8116981299           -2.8133392418
          24
 SCF done     -12.37898181
H             -0.5425054112           -1.1597996585            0.9180873603
C             -0.6112510051           -0.5412956740            0.0100749183
H             -0.5391308395           -1.1969144470           -0.8712436601
C              0.5103658647            0.5037878336           -0.0094871839
H              0.3911098457            1.1518924073            0.8600966290
H              0.3944399221            1.1152669956           -0.9056411629
O             -1.7891825170            0.2100258093           -0.0077307040
H             -2.5646581753           -0.3620747641            0.0026734602
N              1.8637421187           -0.1172780949            0.0059475209
H              1.9871272141           -0.7237037740           -0.8163106223
H              1.9839787968           -0.6890763206            0.8531041602
H              2.5930828886            0.6072400317           -0.0077051379
O              4.0267994295            1.2982927370            0.0112823803
H              4.5387361077            0.9940233179           -0.7407767524
H              4.4990127897            1.0522010309            0.8084028438
O              1.6646653226           -1.6192036153           -2.0691423841
H              1.1952938466           -2.3769833741           -1.7139437057
H              1.0150121633           -1.1160639256           -2.5933982404
O             -0.5476356910           -0.1734906399           -2.8592758832
H             -1.4180841464           -0.5611873817           -2.7377818363
H             -0.6743568496            0.7739285612           -2.7833527479
O             -4.0794593270           -1.0455111926           -0.4122616578
H             -4.6093818005           -0.9312267651            0.3792865624
H             -4.4500116366           -0.4630570498           -1.0793319608
          27
 SCF done     -11.65233455
H             -0.5425054112           -1.1597996585            0.9180873603
C             -0.6112510051           -0.5412956740            0.0100749183
H             -0.5391308395           -1.1969144470           -0.8712436601
C              0.5103658647            0.5037878336           -0.0094871839
H              0.3911098457            1.1518924073            0.8600966290
H              0.3944399221            1.1152669956           -0.9056411629
O             -1.7891825170            0.2100258093           -0.0077307040
H             -2.5646581753           -0.3620747641            0.0026734602
N              1.8637421187           -0.1172780949            0.0059475209
H              1.9871272141           -0.7237037740           -0.8163106223
H              1.9839787968           -0.6890763206            0.8531041602
H              2.5930828886            0.6072400317           -0.0077051379
O              4.1209134034            1.2077664514            0.1452472052
H              4.6794837945            0.9525140217           -0.5917309031
H              4.5438420212            0.9004009515            0.9496507468
O              1.6377527467           -1.5062951181           -2.1853337772
H              1.1512613136           -2.2890127521           -1.9212286265
H              1.0122331419           -0.9475956545           -2.6776787227
O             -0.5766434856            0.0260323594           -2.8766438223
H             -1.4429908995           -0.3777793706           -2.7901767907
H             -0.7178812996            0.9687694625           -2.7729061500
O             -4.0723929154           -1.1229946655           -0.3090646557
H             -4.6113809214           -1.0015857649            0.4755570457
H             -4.5040463447           -0.6439981068           -1.0197816312
O              1.4617303833           -0.9932767522            2.4748161943
H              1.2032005606           -0.1687641790            2.8932000643
H              0.7152960264           -1.5921536049            2.5443460112
          30
 SCF done     -10.26086126
H             -0.5425054112           -1.1597996585            0.9180873603
C             -0.6112510051           -0.5412956740            0.0100749183
H             -0.5391308395           -1.1969144470           -0.8712436601
C              0.5103658647            0.5037878336           -0.0094871839
H              0.3911098457            1.1518924073            0.8600966290
H              0.3944399221            1.1152669956           -0.9056411629
O             -1.7891825170            0.2100258093           -0.0077307040
H             -2.5646581753           -0.3620747641            0.0026734602
N              1.8637421187           -0.1172780949            0.0059475209
H              1.9871272141           -0.7237037740           -0.8163106223
H              1.9839787968           -0.6890763206            0.8531041602
H              2.5930828886            0.6072400317           -0.0077051379
O              4.1492630271            1.2023809117            0.0932736517
H              4.7679688474            0.8725398734           -0.5615958960
H              4.5276231850            1.0387043440            0.9595189691
O              1.6746735569           -1.6367600882           -2.1213649769
H              1.2222277241           -2.4236561423           -1.8128971670
H              1.0324915015           -1.1383853993           -2.6547454867
O             -0.5145299165           -0.1422794577           -2.9294420551
H             -1.4261843938           -0.4273847377           -2.8351956410
H             -0.5306582893            0.8157379107           -2.8964482904
O             -4.1649612704           -1.0275770179           -0.1355768716
H             -4.7320609484           -0.7856509568            0.5996599706
H             -4.5968307055           -0.7129948019           -0.9329689328
O              1.4267311230           -0.9539619688            2.4815686826
H              0.8526357302           -0.2415822468            2.8039234682
H              0.8927830356           -1.7485472352            2.5087439361
O             -0.8249697149            0.7716722277            2.7492293791
H             -1.0331268715            1.6549213171            2.4365449867
H             -1.6535330256            0.2882758661            2.7159893156
          33
 SCF done      93.53171016
H             -0.5425054112           -1.1597996585            0.9180873603
C             -0.6112510051           -0.5412956740            0.0100749183
H             -0.5391308395           -1.1969144470           -0.8712436601
C              0.5103658647            0.5037878336           -0.0094871839
H              0.3911098457            1.1518924073            0.8600966290
H              0.3944399221            1.1152669956           -0.9056411629
O             -1.7891825170            0.2100258093           -0.0077307040
H             -2.5646581753           -0.3620747641            0.0026734602
N              1.8637421187           -0.1172780949            0.0059475209
H              1.9871272141           -0.7237037740           -0.8163106223
H              1.9839787968           -0.6890763206            0.8531041602
H              2.5930828886            0.6072400317           -0.0077051379
O              4.1492630271            1.2023809117            0.0932736517
H              4.7679688474            0.8725398734           -0.5615958960
H              4.5276231850            1.0387043440            0.9595189691
O              1.6746735569           -1.6367600882           -2.1213649769
H              1.2222277241           -2.4236561423           -1.8128971670
H              1.0324915015           -1.1383853993           -2.6547454867
O             -0.5145299165           -0.1422794577           -2.9294420551
H             -1.4261843938           -0.4273847377           -2.8351956410
H             -0.5306582893            0.8157379107           -2.8964482904
O             -4.1649612704           -1.0275770179           -0.1355768716
H             -4.7320609484           -0.7856509568            0.5996599706
H             -4.5968307055           -0.7129948019           -0.9329689328
O              1.4267311230           -0.9539619688            2.4815686826
H              0.8526357302           -0.2415822468            2.8039234682
H              0.8927830356           -1.7485472352            2.5087439361
O             -0.8249697149            0.7716722277            2.7492293791
H             -1.0331268715            1.6549213171            2.4365449867
H             -1.6535330256            0.2882758661            2.7159893156
O              0.1485194032            2.2441067937            1.2452738498
H              0.7416504288            2.7082965993            1.8392537898
H             -0.2817354600            1.5547475136            1.7549338286
