  84
       -142.49634227
 O         -3.5356503525        3.0684071069        2.4368622470
 H         -3.8908169549        3.8433523852        2.8737277396
 H         -2.5661871113        3.1896041969        2.4070538246
 O          2.6074084645       -0.9970841138       -3.2182311481
 H          2.2437232642       -1.8850863490       -3.0784448586
 H          1.8593467973       -0.3777549366       -3.2309804118
 O         -0.5790661883       -2.2007110686        2.3611371156
 H         -1.5540479382       -2.2263050593        2.3544384071
 H         -0.3076428822       -1.5092471027        2.9845256125
 O         -0.1742893445        5.0594690003       -0.2572130579
 H          0.7888096633        4.9067114301       -0.2104496214
 H         -0.3147656798        5.9969155173       -0.3881703166
 O          0.4287286555       -1.2040958820        0.0357701417
 H         -0.0052311177       -1.4818483424        0.8667590212
 H          1.2311955642       -1.7683055378       -0.0233237902
 O          2.4813373463        4.3626599512       -0.1819525540
 H          3.2526541694        4.9266317251       -0.2527387083
 H          2.6345190895        3.6015884327       -0.7737064096
 O          1.1107208706        1.4269934143        0.2100197131
 H          0.8863813749        0.4796252071        0.1641154758
 H          1.8920354369        1.5594728385       -0.3493298568
 O          1.6699200238        3.2843419710        2.3354979948
 H          1.9980524817        3.6825954330        1.5163745011
 H          1.9759746601        2.3631963202        2.3133335195
 O         -2.1195579367       -3.8903817999       -0.0689668238
 H         -2.5867581393       -3.3782967051        0.6070255929
 H         -1.3516126632       -4.2916765016        0.3652799398
 O         -0.9173719815        3.3586347341        1.8203633697
 H          0.0253729178        3.3234537140        2.1240934528
 H         -0.9077218336        3.9786292341        1.0752158614
 O         -0.5522329787        2.6267213135       -1.4018094456
 H          0.0429644209        2.2378375683       -0.7002591818
 H         -0.6578856168        3.5608258318       -1.1653953394
 O          2.6794977642        0.6769614458        2.6363189852
 H          2.9976674463        0.1109241776        1.8916032001
 H          3.3880306586        0.6859929489        3.2811306887
 O          3.6714892718       -0.8991639267        0.7795965056
 H          3.3256492248       -1.7754603494        0.5633921289
 H          4.0367075367       -0.5424464941       -0.0471160222
 O          4.4824280898       -0.0219110524       -1.6929086140
 H          5.3446117810       -0.1690804556       -2.0824031060
 H          3.8209324255       -0.4740465702       -2.2831731459
 O          0.3083056982       -4.4965379234        1.2853630297
 H          0.4762825449       -5.2095301522        1.9025043275
 H          0.0772403471       -3.7049764364        1.8118232933
 O          1.4702787449       -3.4887522746       -2.7143440652
 H          0.5474429853       -3.2134253429       -2.5050980560
 H          1.4227376401       -4.2068293837       -3.3454474126
 O          0.5488990215        0.8637666605       -3.1791008496
 H          0.1955355011        1.6028002205       -2.6556741176
 H         -0.2300132072        0.3778708195       -3.4782198102
 O          2.2672689632       -3.1372694513       -0.1185948584
 H          2.2055645890       -3.3683834283       -1.0602194696
 H          1.7064759379       -3.7763958047        0.3533471866
 O         -1.8900633362       -0.5930313312       -3.3537015135
 H         -2.4224205195       -0.9130462541       -4.0820259278
 H         -1.5156676467       -1.3884555783       -2.8915980479
 O          2.8966077515        2.1476206185       -1.7468426161
 H          3.6082660297        1.4786369245       -1.7100128824
 H          2.3420183162        1.9047859451       -2.4963574538
 O         -1.3897780423        0.7883163116        1.3726176576
 H         -0.7841533500        0.4411999096        2.0505682796
 H         -1.2262053082        1.7600791709        1.3992450279
 O         -3.8844969829        0.2368239422        2.0157633903
 H         -4.2389426295        0.9622165288        2.5367883520
 H         -2.9463338721        0.4921091982        1.8422113168
 O         -0.8514407419       -2.4754502605       -1.8893867523
 H         -1.4240259671       -3.0664404389       -1.3449823525
 H         -0.3885849898       -1.9111031461       -1.2199721870
 O          0.2216561986        0.1292861008        3.4805640929
 H          1.1327755107        0.3058625240        3.1471703908
 H          0.0700301138        0.7578960295        4.1876667382
 O         -3.2747328388       -2.3687529094        2.0611439748
 H         -3.9060753010       -2.8686888700        2.5805703432
 H         -3.6052238721       -1.4447404805        2.0364815935
 O         -2.8227755296        0.0577489322       -0.8880577266
 H         -2.4174973291        0.4129726213       -1.6856320820
 H         -2.2463727565        0.3155992972       -0.1568801716
 O         -4.0398943921       -2.1233592696       -2.0162308315
 H         -3.7724790460       -2.8446009642       -1.4440927643
 H         -3.5583429560       -1.3389819573       -1.6857646278
 O         -5.8152813150       -0.3670496326       -0.4601424883
 H         -5.0512246303        0.0448272809       -0.0392555845
 H         -5.4410653169       -0.9257781170       -1.1528441825
