  131
       -218.46374871
 H          0.9384375070       -1.6055741499       -0.1228512350
 C          0.1666293049       -1.4181434871        0.6269769722
 H         -0.4091787006       -2.3352659483        0.7709736927
 C         -0.7594078059       -0.3013071999        0.1454199979
 H         -1.1443714792       -0.5875468545       -0.8343806602
 H         -0.1963725440        0.6274925584        0.0469614560
 N         -1.8894041630       -0.0500610857        1.0244147372
 H         -1.5676417794        0.3345772752        1.9056513892
 H         -2.3707587309       -0.9215159066        1.2178808413
 O          0.8160417750       -1.1196836069        1.8565952312
 H          0.4527590915       -0.2785260768        2.2482351656
 O          3.2200620291       -0.2557947524        1.1607526689
 H          2.4191621214       -0.5343184239        1.6407257160
 H          3.9574968796       -0.2121195612        1.8066094674
 O          0.7248501566        3.2489323406       -1.2236813635
 H          1.3346294579        2.4877410689       -1.1363394879
 H          0.7374247736        3.4684679987       -2.1789275272
 O          0.6905050112        3.5103472901       -3.9125478091
 H         -0.1182878476        3.1980850041       -4.3434129304
 H          1.3837595833        2.8904018301       -4.1903602870
 O          0.7701991061       -2.6776823024        4.0647930652
 H          0.0168680478       -2.2886343864        4.5247851235
 H          0.8330275541       -2.1742426066        3.2270898714
 O         -0.1407523880       -4.6814599773        2.5100468027
 H          0.2851526280       -4.1648900811        3.2219979789
 H         -1.0224822026       -4.2912284211        2.4301847305
 O          1.1990233518        2.9144108443        1.5412755174
 H          0.9005625029        3.2557282357        0.6907551054
 H          2.1509167148        2.7563601812        1.4327816909
 O          3.9463340584        2.6678314769        1.0825211991
 H          4.4909746774        1.9891406873        0.6090372151
 H          4.3035493941        3.5165951930        0.8208113816
 O          5.5232929581        1.0097572040       -0.2642003763
 H          5.2142894172        0.9076727177       -1.1759561717
 H          5.7162594889        0.1191698290        0.0679503537
 O          2.2259875203        1.2820810195       -4.5781505322
 H          2.1589206636        0.8199312172       -5.4138877270
 H          1.6088252145        0.8191187573       -3.9547372414
 O         -0.0083132527       -4.0494791805       -1.6058103398
 H          0.6132788263       -4.1913986469       -0.8696205451
 H         -0.8554609474       -3.8080939433       -1.2037985627
 O         -4.9869125793       -2.0385081160        2.0783558475
 H         -4.7466042010       -1.7867731712        1.1562840067
 H         -5.9404606737       -1.9540276413        2.1250123212
 O          1.6432075239       -4.4381858480        0.5630563761
 H          2.0622947246       -5.2988479891        0.5244360481
 H          0.9760019666       -4.4988625792        1.2933239940
 O          3.3525147523       -1.6583521604        4.4761633561
 H          2.9643522100       -0.7930521867        4.6904435551
 H          2.5957514489       -2.2558896150        4.3967900155
 O         -3.9878593499       -0.0303160747        3.7022388181
 H         -4.0418766733        0.6844224475        3.0422307263
 H         -4.4301554408       -0.7801767198        3.2710915914
 O         -0.8423053874       -2.0386920972       -5.2314716006
 H         -1.5302825064       -2.7039568379       -5.2633491172
 H         -1.2443576860       -1.2463328150       -4.8181508843
 O         -5.7815660944        1.9467101975       -1.8480938682
 H         -6.2343046197        1.5015832596       -1.1090964801
 H         -4.9434867704        1.4613610691       -1.9471878901
 O         -2.3913926978       -2.9797523876        2.4097723365
 H         -3.3475115955       -2.8761224780        2.5190199823
 H         -1.9953720441       -2.3058686742        3.0067820397
 O         -2.4217626501       -3.5972750466       -0.2262010385
 H         -2.3521623589       -3.3813975311        0.7276769949
 H         -2.8494372083       -4.4533043641       -0.2776121001
 O          0.6709571685        0.0849098930       -2.7992845440
 H          1.1553819581        0.3815802808       -2.0009593765
 H          0.8866253967       -0.8691788167       -2.9370127568
 O         -4.2933333871       -1.5451598072       -0.4606001377
 H         -3.9383112766       -0.7404069804       -0.8957921492
 H         -3.6375339501       -2.2410421905       -0.6148365290
 O         -3.4296432844        4.0307842457        0.7813715867
 H         -4.0315147999        4.2034291536       -0.0042845790
 H         -3.5594810543        4.7584929968        1.3881468993
 O          4.3467711435        1.9550882996        3.6755040244
 H          4.1580286248        2.2951888399        2.7793239101
 H          4.8973635939        1.1709419865        3.5308165734
 O          2.2611026775        0.8883248789        4.8083731055
 H          3.0315643093        1.3469052552        4.3613145621
 H          2.2144253812        1.2547004656        5.6913968808
 O         -6.3456360493        0.3336893151        0.3103177106
 H         -5.6326961775        0.7869377674        0.8010336050
 H         -5.9213805444       -0.4180203826       -0.1167428179
 O          3.6068143640       -2.5459797359       -0.1299278294
 H          2.9434836070       -3.1887581099        0.1647398858
 H          3.3783231360       -1.6862513584        0.2967340244
 O          0.1444842912        1.0623913688        3.1419269171
 H          0.4053081195        1.8074728963        2.5569366050
 H          0.8576660173        1.0268345526        3.8111938416
 O          3.7836103672       -1.9608451759       -2.7947145642
 H          3.7631648406       -2.2506104550       -1.8643576632
 H          2.9102850847       -2.1874620282       -3.1513845278
 O          6.1093586409       -1.6931116414        0.4832391452
 H          6.7752915350       -2.0014305058       -0.1315405042
 H          5.2750019913       -2.1401146092        0.2387180958
 O         -1.5541369980       -1.0218334122        4.0917359437
 H         -0.9838261135       -0.2604576268        3.9200371867
 H         -2.4646636099       -0.6447121269        4.1229527174
 O          4.2088860274        0.6538594868       -2.7172228348
 H          4.1281875609       -0.3288781137       -2.7983481624
 H          3.7610383605        1.0157368867       -3.4969523146
 O          5.2214410453       -0.5346233298        2.8984106090
 H          5.7671627231       -1.0793770909        2.3189726216
 H          4.7110293361       -1.1217284828        3.4912394164
 O         -1.8099989696        2.6492631310       -0.9152293444
 H         -0.8379135586        2.8296989503       -0.9474879219
 H         -2.1800778708        3.1258231073       -0.1555162298
 O          1.1255513226       -2.4288037122       -3.3912559981
 H          0.5400979330       -2.4221453106       -4.1721667954
 H          0.7234437240       -3.0652980890       -2.7596848972
 O         -4.8747771618        4.3911391067       -1.3444044328
 H         -5.3326110729        3.5314241726       -1.5148777038
 H         -4.2325423106        4.4731941761       -2.0623369633
 O          2.2743764456        1.0768907164       -0.9500952938
 H          3.0410853570        1.0333255973       -1.5665283748
 H          2.6086485505        0.7165336649       -0.1078971035
 O         -1.8048708571        2.6455630088       -4.9784247151
 H         -2.2835560087        2.8648167729       -5.7776408305
 H         -2.1981991299        3.1909661811       -4.2523093257
 O         -4.1210362927        1.4736682292        1.4201335871
 H         -3.3631572180        0.9990096653        1.0203933297
 H         -3.9566497682        2.4191637314        1.2611820349
 O         -3.3696542588        0.6022245128       -1.7755585254
 H         -2.8994085849        0.3597282715       -2.5970575269
 H         -2.8064918969        1.2679811821       -1.3421928089
 O         -2.5275175377        4.1632822797       -2.9361244963
 H         -2.2969315892        3.5472071208       -2.1870582185
 H         -1.8555891381        4.8479717008       -2.9265702036
 O         -1.7564638469        0.1511740653       -3.8865659261
 H         -1.8073813563        0.9899158587       -4.3801153816
 H         -0.9055754931        0.1972929491       -3.4017440886
