  191
       -320.32227870
 H          1.9453973767       -1.4285545726       -0.4071110659
 C          2.8731452512       -0.9315284031       -0.1251588548
 H          3.4518933813       -1.5811615826        0.5363546780
 C          2.5939897319        0.3991462972        0.5712898338
 H          3.5454164573        0.8647622954        0.8318131822
 H          2.0322762175        0.2205574589        1.4857255377
 N          1.8575602223        1.3355038360       -0.2646949655
 H          2.3321250762        1.4455810933       -1.1549743516
 H          0.9242813737        0.9897576813       -0.4558607238
 O          3.5766505963       -0.7219835004       -1.3423862466
 H          4.2540340724       -0.0358880606       -1.1865012803
 O          0.2060429795        3.0153864448       -2.5248937201
 H         -0.2370708274        2.4600506794       -1.8418474661
 H          0.3684656660        3.8777810221       -2.0765833484
 O          0.0665236816        0.1159070445        3.7000866216
 H          0.0403856079       -0.0645224977        2.7420766212
 H         -0.7519520330       -0.2648107178        4.0577693091
 O         -5.0832740734        3.4957146962       -0.9666327100
 H         -4.9669591204        4.0978549484       -0.2108555115
 H         -4.3817974248        3.6923726656       -1.6055075303
 O          2.8967097997       -2.9612028726        3.4931076679
 H          2.9710437167       -3.7023918235        4.0946756635
 H          3.7850992329       -2.8793953434        3.0540173152
 O          1.2848980493       -6.7228646029        0.4666386487
 H          1.1468851140       -7.3310744204       -0.2601327079
 H          0.4472739460       -6.2420847756        0.5923655564
 O          2.2126232049        3.2789831255        3.4837649826
 H          2.1425008391        3.5423456327        2.5503016532
 H          1.3091783798        3.1638858182        3.8133443929
 O          0.8774426267       -3.0817758843        1.6783151037
 H          1.5087113208       -3.0065828851        2.4154672384
 H          0.5002622646       -2.1860843071        1.5273366524
 O         -5.9752142994        0.1142643158       -3.4565715693
 H         -6.5066148983        0.6784500508       -2.8774684388
 H         -5.0688447919        0.4886548564       -3.4188565365
 O         -0.0718152686       -1.1245570696       -1.5437246846
 H         -0.0743922467       -2.0731580395       -1.7696941600
 H          0.1338806481       -0.6399284263       -2.3656424394
 O         -2.9428114194        2.1917427921        5.3274591213
 H         -3.5665903503        2.6366022420        4.7378778560
 H         -2.0563350096        2.5162502373        5.0879011908
 O         -2.0264009639        4.6229717063        0.0297400820
 H         -2.8596760750        4.8340594013        0.4785726289
 H         -2.2650759827        4.1493431201       -0.7948431777
 O          0.5534840572        5.1489274556       -0.9890835868
 H         -0.3173205534        5.2376955248       -0.5804780577
 H          1.1372783282        4.7489307666       -0.3144617406
 O          5.5999770892       -0.1080891856        1.8006557962
 H          6.4671373156        0.3158686718        1.9284651269
 H          4.9801568833        0.3829359631        2.3798451603
 O         -3.3590373663       -4.0150463469        0.6127521862
 H         -3.0576335715       -3.1188100087        0.8891914420
 H         -4.2683217948       -4.0588994191        0.9480044909
 O          5.2637044887       -2.7339600262        2.3799876769
 H          5.3822619934       -3.1738501869        1.5285635146
 H          5.4392573528       -1.7832446883        2.2298807787
 O          2.5586576795       -4.3753490383        0.0324619811
 H          2.3012795616       -5.2933994929        0.2417151691
 H          1.9630039148       -3.8207481836        0.5791887594
 O          7.9563453931        1.2618525940        1.8204232450
 H          8.7429573845        1.0599840059        2.3269535536
 H          8.1827179599        1.0707780320        0.8698785478
 O         -5.7864121197       -3.0241575051        1.4329122642
 H         -6.6580786341       -3.2261915926        1.0566901630
 H         -5.4815987118       -2.2875447810        0.8677487177
 O         -2.5831686605        1.3990589981        2.2737860806
 H         -1.7525277175        1.8994902087        2.2071103684
 H         -2.4676863386        0.7132058648        2.9670086174
 O          2.0410119757        3.7200077756        0.7892717392
 H          1.9508958177        2.7976376689        0.3767322559
 H          2.9911113459        3.9159359644        0.7159298962
 O         -4.4736188512        4.8835991493        1.2855477826
 H         -4.5135475839        4.1744059644        1.9855291035
 H         -4.8058493536        5.6839630584        1.6904866755
 O         -1.9609289842        0.1902674871       -5.0462766204
 H         -2.0186258806       -0.7826516603       -5.0735536078
 H         -1.0776203411        0.3612461732       -4.6799993346
 O          4.8709795515        1.8560030118       -1.1879433926
 H          4.2046754373        2.1740478339       -1.8298300222
 H          4.8823029390        2.5320323486       -0.4853147029
 O          5.1676099072       -3.6751862036       -0.3016168805
 H          5.1913188477       -3.7126634666       -1.2692302367
 H          4.2571142941       -3.9540098443       -0.0808969521
 O         -2.6805717062        3.4309317205       -2.3302473133
 H         -1.8394942195        3.5477575569       -2.7866129961
 H         -2.9784231179        2.5190929533       -2.5844980656
 O         -2.7159887267       -0.9599520885       -1.4078751498
 H         -2.9406965636       -1.8542643043       -1.7404660879
 H         -1.7360046792       -0.9004142624       -1.4587188703
 O         -0.7794695769       -4.9304050900        0.6017167230
 H         -0.2998268115       -4.2762854297        1.1448064553
 H         -1.7301493617       -4.7657109205        0.7274295163
 O         -3.4697755117        1.0174429457       -3.0730569391
 H         -2.9555536643        0.7640096815       -3.8830712913
 H         -3.2250217077        0.3512344505       -2.3967815470
 O          2.9209706824        2.5171661039       -2.9182295536
 H          1.9927851601        2.8049671638       -2.8494658753
 H          2.9479208587        1.7356644565       -3.4965780983
 O         -1.6388510116       -2.4734316949       -4.6512700820
 H         -2.1209278830       -2.9230473436       -3.9542999828
 H         -0.7026078140       -2.4500119703       -4.3894880599
 O         -5.7765603322       -2.2569300125       -2.3331817093
 H         -5.8855047380       -1.4594383267       -2.9096939046
 H         -5.0149995953       -2.7509571087       -2.6507740676
 O         -1.0092532266        1.4837785593       -0.6901536199
 H         -1.9652026486        1.3160124457       -0.7321993488
 H         -0.8524349499        1.9320823713        0.1611999625
 O          7.1154268600        1.9997081901       -2.5758274280
 H          6.2880102193        1.9578631935       -2.0302659243
 H          7.2136842656        2.9065181457       -2.8640757063
 O          6.0369555512        3.0744947125        2.7287390031
 H          5.4102772551        2.4901455990        3.1895759053
 H          6.7711774531        2.5139031998        2.4325812952
 O          8.4589166150        0.5336473144       -0.6536066780
 H          7.8463099905       -0.2200192757       -0.7043601730
 H          8.1667208374        1.1317698391       -1.3611490064
 O          4.7732372082        3.8991198314        0.6094421778
 H          5.2213183807        3.6008692038        1.4532018704
 H          5.1262996038        4.7675103593        0.4169004499
 O          4.5550943769       -2.8533478300       -2.8697183659
 H          5.1641212991       -2.3791879665       -3.4429069789
 H          4.1615842870       -2.1662586933       -2.2992343060
 O          5.8693237403       -0.3978272606       -3.3422155372
 H          6.4121080951        0.3924279099       -3.4509229623
 H          6.0085899055       -0.6524010143       -2.4123358591
 O         -3.0990803635       -3.5216523326       -2.0546436184
 H         -2.1534265018       -3.7526432286       -2.0990601367
 H         -3.3634047180       -3.8160367093       -1.1588009421
 O         -6.5746324300        1.1050770249        2.6355216747
 H         -7.2754046575        1.0530200976        3.2854211425
 H         -6.9839326060        0.8358973795        1.7658781794
 O          3.1550609477       -0.0370972871       -3.9158208701
 H          3.0171952226       -0.3703966014       -3.0094768018
 H          4.1176062455       -0.1081920117       -4.0274789680
 O         -4.5572706594        2.9475057683        3.0514603528
 H         -3.8021003911        2.3840406650        2.7496796229
 H         -5.3420771465        2.3869879102        2.9307825101
 O          0.3990398173        0.5407762184       -3.6898592427
 H          0.3471618002        1.4685177314       -3.4147331074
 H          1.2778656837        0.3788307572       -4.0485248040
 O         -0.2720959572       -0.7399659864        1.1812915133
 H         -0.1677728037       -0.6528011294        0.2187448971
 H         -1.2160429378       -0.9914408534        1.3015253914
 O         -0.5757567943        2.9876900631        1.5319547069
 H         -1.1000420868        3.6853193322        1.0821691719
 H          0.3420931919        3.2786518101        1.5039267721
 O         -7.5433670152        0.2253986833        0.3680770293
 H         -7.6166289797        0.8818156098       -0.3404797466
 H         -6.6905740188       -0.2460024798        0.1752154552
 O          1.0513257724       -2.2567816451       -3.9136638038
 H          1.4834801910       -3.0321645576       -3.5113699887
 H          1.7183526911       -1.8037700107       -4.4322034101
 O         -0.2535810875        2.5771607745        4.6765678960
 H          0.1422419915        2.5281125528        5.5482754953
 H         -0.1154039073        1.6905528335        4.2685796386
 O         -3.7057126437        1.2668309946       -0.1596659656
 H         -4.2470308856        2.0454712516       -0.3717870676
 H         -3.4039682043        1.3304554397        0.7642994786
 O          4.0552497268        1.3129301382        3.4787513995
 H          3.3996253770        2.0415543134        3.4649386816
 H          3.6355149349        0.6330792789        4.0485731656
 O         -2.7772101761       -1.4872044341        1.2216185706
 H         -3.4921860286       -1.1770494873        1.8078180046
 H         -2.9510871029       -1.1495369914        0.3141790268
 O          6.2695731941       -1.1230028260       -0.6499768442
 H          6.0274740634       -2.0537573289       -0.5157664403
 H          5.9505155238       -0.6616951261        0.1461102092
 O         -0.4191824631       -3.8455493859       -1.8188211191
 H         -0.4796298891       -4.2759073724       -0.9364697386
 H          0.3372434522       -4.2352629503       -2.2701996946
 O          2.2608509192       -4.3419110667       -2.6348736184
 H          3.1334884888       -4.0609142777       -2.9447231537
 H          2.3476032256       -4.3408655418       -1.6561437442
 O         -5.2448279369       -0.8975535579       -0.1418000445
 H         -5.3581231687       -1.3758001680       -0.9949488196
 H         -4.6428383209       -0.1391586045       -0.2983121281
 O         -7.2099350016        1.9955010902       -1.7342604078
 H         -7.7854731848        2.5664875938       -2.2430450380
 H         -6.4393750881        2.5342510569       -1.4689491873
 O         -4.7967096333       -0.9795130084        3.0076731162
 H         -5.4012942424       -0.2304132602        2.8576513769
 H         -5.2676867892       -1.7810151275        2.7271437677
 O         -2.5329203922       -0.2739975135        4.3640772055
 H         -3.3628642475       -0.7069920200        4.1128190692
 H         -2.7687992864        0.5034964276        4.9157326924
 O         -7.8448999625       -2.6825677210       -0.3396087931
 H         -8.0746085543       -1.7642337324       -0.1548717025
 H         -7.2852433798       -2.6679454327       -1.1286849432
 O          2.5616519746       -0.5148401497        4.7440101798
 H          1.6700823475       -0.2640938057        4.4536819281
 H          2.7209780987       -1.3906790703        4.3558793661
