  129
       -218.88818970
 O          3.9862122244       -1.6867173412       -1.6125501569
 H          3.5945227618       -0.8626293122       -1.9424602208
 H          3.5645837422       -2.4343105550       -2.0711959047
 O          1.0251092632       -0.5217058280       -1.6615259704
 H          0.6993302626       -1.3631972283       -2.0467062882
 H          1.0740114349        0.0904923415       -2.4133204602
 O         -1.6652609922       -4.0717751900       -1.7486946401
 H         -1.4484635439       -4.0597688630       -0.8042301242
 H         -2.5203776753       -3.6316232141       -1.8442171175
 O         -0.1344922077        3.4056236369        1.4683133764
 H         -1.0082484129        3.8518275744        1.3579085796
 H         -0.1376968467        2.7128191630        0.7806544876
 O          3.3652230410        1.0315829119       -1.5498653456
 H          2.8694859515        1.8349520658       -1.8280075260
 H          2.9622197635        0.8303344399       -0.6800069817
 O          5.8685750401       -0.8450206601        0.1658450653
 H          6.1142219135        0.0319773157       -0.1768376388
 H          5.2732735448       -1.2177542006       -0.5076861246
 O         -0.4663535800       -0.9847305028       -4.8195516205
 H          0.0080827660       -0.1755419022       -4.5808551951
 H         -0.1232011834       -1.6869960260       -4.2350743085
 O          5.8131394226        1.6856018263       -0.8779305240
 H          6.2387514846        2.1216961078       -1.6150960094
 H          4.8848061976        1.4671449821       -1.1704814512
 O          4.5043473923        0.3620906027        2.2270918206
 H          5.0099095720       -0.1072796244        1.5363748596
 H          4.8053932085        1.2991490289        2.1797380575
 O          2.6864649056       -3.9973176881       -2.4000632121
 H          2.3500778585       -4.2392497157       -1.4932431530
 H          3.0655002409       -4.7928857067       -2.7719138673
 O          0.2964023107       -2.7426521557       -2.9147797575
 H          1.0969259105       -3.2893666266       -2.8818298077
 H         -0.4370258924       -3.2805747085       -2.5294057498
 O         -2.9763727323       -0.9775315054       -4.0887811145
 H         -3.4437217480       -1.3410600970       -4.8420635368
 H         -2.0140892876       -0.9715603076       -4.3512476711
 O         -3.9162759021       -2.3779444194       -1.9078589406
 H         -4.7238026093       -1.8762434910       -1.6984658510
 H         -3.5101822080       -1.8950690373       -2.6508752774
 O         -5.5536359602       -0.9884436208        1.4747530752
 H         -5.2796526431       -0.2644736453        2.0576167860
 H         -4.8217063327       -1.6240585436        1.4555553054
 O          2.2808250827       -1.8070586844        0.4571247022
 H          3.0550535294       -1.7734438049       -0.1400076456
 H          1.6275458564       -1.2366151944        0.0272644891
 O          2.2730139884        0.9324080064        0.9124902302
 H          3.0211598041        0.6471349000        1.4829410150
 H          1.4600844982        0.5945523618        1.3385372139
 O          2.5344566014        3.5822496355        0.7313199876
 H          2.4243519122        2.6055303712        0.8076937949
 H          1.7158100336        3.9344216207        1.1051044740
 O          1.7999939485       -4.3832410383        0.0422447213
 H          1.8668421421       -3.4181726056        0.2310622867
 H          2.4937083885       -4.7737327490        0.6127470738
 O         -3.4942945885        1.7136658397       -3.9373951790
 H         -3.3229116590        0.7570754881       -3.9945409107
 H         -4.0801108429        1.8288070751       -3.1665175101
 O         -0.2916760930        2.2032783606        3.7652451623
 H          0.3056078731        2.6105741484        4.3922668240
 H         -0.1838139716        2.7018579248        2.9025079734
 O         -2.9624956248        2.9057057125        3.6755662507
 H         -2.0616218967        2.5618525523        3.8038144014
 H         -2.9009548191        3.5464657946        2.9570836066
 O         -2.2627134955        4.6724474778       -1.6561450874
 H         -1.7734037654        4.1778317883       -2.3282882359
 H         -3.1827863314        4.7105449413       -1.9739893193
 O         -4.9422290673        4.5461519704       -2.2977608925
 H         -5.1124054673        3.5916562834       -2.2493701255
 H         -5.4440399220        4.9455976290       -1.5857391836
 O         -4.9409582002        1.1804852961        3.1873072471
 H         -5.5588048037        1.2674193035        3.9128911202
 H         -4.1668221965        1.7480845091        3.4166145679
 O          1.8155928899        3.1658629730       -1.8603682934
 H          0.9443688723        2.8181762000       -1.6046713363
 H          2.1542112757        3.5794240924       -1.0434303622
 O         -2.5842822809        4.3070405805        1.0327685693
 H         -2.4223361552        4.6254141511        0.1249409859
 H         -3.2101103289        3.5600892468        0.9105739803
 O         -4.1874425275        2.1738588597        0.7239758657
 H         -3.4905463514        1.4355024621        0.7611469651
 H         -4.7724115571        1.9829278975        1.4666364909
 O          4.6287708411       -1.7015687461        3.9957847515
 H          5.2133880809       -2.2409339724        3.4416634750
 H          4.5915172939       -0.8344555307        3.5532269937
 O         -5.1325066468        1.8363914487       -1.7448175876
 H         -5.5199214057        0.9489176509       -1.6779574973
 H         -4.7679810419        2.0106291695       -0.8480105914
 O          2.4227665143       -2.7579506128        3.0219238832
 H          2.4323360871       -2.3035105156        2.1601175505
 H          3.1609651106       -2.3529514848        3.5396048829
 O          3.7844433864       -4.7975273643        1.8070818843
 H          3.2684618637       -4.2609391475        2.4365587852
 H          4.6181304872       -4.3183434632        1.7115605235
 O          6.0187994664       -2.9815099674        1.8892351748
 H          6.0110163809       -2.2310151475        1.2692386411
 H          6.9266960225       -3.2796788129        1.9476163436
 O          5.1188182282        2.8649899130        1.5657935437
 H          4.2843101946        3.3151043542        1.3583224766
 H          5.4912961778        2.5978706675        0.7105110501
 O         -0.8105892076       -3.8692484740        0.9198556526
 H          0.0399180116       -4.2457027540        0.6386236626
 H         -0.6131717627       -3.3637473335        1.7266623120
 O         -3.3580625866       -2.5531788293        0.8332367589
 H         -3.5313768490       -2.5563964990       -0.1235583918
 H         -2.5890251388       -3.1195740331        0.9686962632
 O          0.1022453609        0.0240116108        2.1869934889
 H         -0.0293205070       -0.8619710524        2.5602379740
 H         -0.0349182641        0.6645999987        2.9047364289
 O         -1.2876509196        3.1219753425       -3.8759532410
 H         -2.1439201585        2.6150702699       -3.9158585529
 H         -1.3033992188        3.7254230958       -4.6195008568
 O          0.7742005572        1.3289390893       -3.7916139222
 H          0.0201311548        1.9551042205       -3.8233534436
 H          1.5444871640        1.8909534834       -3.6722734117
 O         -5.9863429361       -0.7248095639       -1.1128077089
 H         -6.8920233908       -1.0099626181       -1.2352940341
 H         -5.8229850313       -0.7587305879       -0.1330734602
 O         -0.1707736053       -2.4971905116        3.2571984031
 H          0.8061154763       -2.6572190585        3.2799497704
 H         -0.5261041129       -2.7992010070        4.0925648777
 O         -2.3101958369        0.2748696282        0.7833741349
 H         -2.7050898611       -0.6087965755        0.8045742152
 H         -1.5376280058        0.2217803651        1.3809889056
 O         -2.4834786988       -0.4348425990        3.6112779371
 H         -3.3430770471       -0.0353664373        3.4427789971
 H         -2.0876917905        0.0363316646        4.3445986273
 O         -0.1954943488        1.6585137294       -0.5411269632
 H          0.3281023050        0.8639777281       -0.7465092721
 H         -1.0959915691        1.3428283996       -0.4062115751
