  279
       -473.54827196
 O          0.0826607647        5.3205287585       -2.5575676411
 H          0.9823958444        5.2436428936       -2.9075320669
 H          0.1752146449        5.8796049279       -1.7692966618
 O          0.3583953354        6.4842358927       -0.0616781758
 H         -0.3431709459        6.0257858968        0.4440983168
 H          0.3480030193        7.3985709973        0.2199024135
 O         -1.5707501174       -3.7689101703        3.8703061846
 H         -1.1225088138       -4.0909383814        3.0639010980
 H         -2.5017230922       -3.9764387750        3.7315881903
 O         -1.8524175727       -0.3862003263        2.6684793861
 H         -1.8329623703        0.4659382574        2.1792890186
 H         -2.3369713114       -1.0318882155        2.0964527865
 O          2.0963995821        1.2621714583        2.4155007706
 H          1.5041275262        0.6175927945        2.8539178006
 H          2.6774599063        0.6950082892        1.8639098471
 O          2.0646210343        3.0816379222       -1.3022207243
 H          2.9236958913        2.8497189687       -0.8946545193
 H          2.2348571253        3.8977432390       -1.8064200378
 O         -3.5305468709        4.7587022719       -1.9666082125
 H         -3.2260477114        5.5263362107       -2.4497832661
 H         -2.7117519803        4.3042298749       -1.6315207479
 O          6.8042990943        3.3243460707       -3.0700006880
 H          7.1813020586        2.4342430818       -2.9232706377
 H          5.9253649058        3.1932578556       -3.4621465078
 O         -1.7549223638        2.0568983834        1.6330825214
 H         -1.9572309523        2.5125090786        2.4822915514
 H         -0.8866188826        2.3988583876        1.3486185651
 O         -5.5166440759        4.7054692352        0.0453197318
 H         -4.9168463633        4.8826564218       -0.6944379015
 H         -4.9343633790        4.6064071494        0.8184115422
 O         -3.2177235524       -2.0882823151        1.2315041908
 H         -2.5758429176       -2.4408277580        0.5851302019
 H         -3.5584146129       -2.8663618092        1.7292801128
 O          4.3496727209        2.4926777254       -0.0541491650
 H          4.2351487048        2.6215500405        0.9101698482
 H          4.7235337392        1.6064086898       -0.2429759804
 O         -0.2501003647       -5.2802083238       -3.8595865027
 H          0.0739913319       -4.4244129745       -4.1703988804
 H          0.0074452675       -5.3372321571       -2.9212758544
 O         -0.2236820568       -4.7392025133        1.7489328857
 H          0.3729094599       -5.4904746326        1.6861666051
 H          0.2889219788       -3.9456276447        1.4841118358
 O          6.2832992246       -1.3383284256       -3.5984228529
 H          6.2150147038       -2.2262596301       -3.2293322233
 H          5.6125736871       -1.2803159662       -4.2855265453
 O         -3.6200475024        2.0192869385       -5.2679024817
 H         -2.7950636544        2.4473494189       -4.9992526500
 H         -4.3199421077        2.5528337397       -4.8511687754
 O         -4.7523478248       -2.3261324283       -1.6137969406
 H         -5.5702064840       -2.3096939564       -1.0584034988
 H         -5.0349149635       -2.2091401459       -2.5227934300
 O         -3.2170892749       -2.2672380669       -4.6895763793
 H         -3.8863260124       -1.5808270874       -4.4753258533
 H         -2.6417225976       -1.8376242947       -5.3405767652
 O          1.9813956699       -6.3510171725        0.6829896612
 H          2.8200342147       -6.5576818204        0.2525540136
 H          1.3935012512       -6.0352560421       -0.0333779090
 O          1.5316523805        2.2726683408        5.1070233216
 H          2.1703401780        1.5509624849        4.9083677002
 H          1.8211662398        2.6653697950        5.9304236120
 O          2.8250816710        5.0831083107       -2.9344790393
 H          3.4334697029        5.5673613670       -2.3492775737
 H          3.3664673897        4.4328560665       -3.4171146674
 O         -3.0179110561       -0.3103374205       -0.9921646819
 H         -3.4884509170        0.4540938296       -0.6073152435
 H         -3.6606415075       -1.0263213673       -1.1368356890
 O          1.5265469855       -2.7399566784        1.5539020173
 H          1.2320860524       -2.0033408654        2.1288696898
 H          2.0615228522       -3.3327738248        2.1211410280
 O         -1.5250055395       -1.5899688613        5.4486157700
 H         -2.4392043576       -1.5408045826        5.7346355676
 H         -1.4880599140       -2.3325333856        4.8100577190
 O         -6.7317776476        2.7665827512       -1.4116453236
 H         -7.6169538996        2.5042563851       -1.1138583307
 H         -6.3786862902        3.4246953217       -0.7828928002
 O         -1.4161637463       -1.9363722626       -2.7919135129
 H         -2.1440900532       -2.2077365780       -3.3991698352
 H         -1.4612981257       -0.9691616913       -2.7818877999
 O          3.1667369004        0.1490733001        5.0470958572
 H          2.5936275565       -0.3495180908        5.6478824527
 H          3.2847392079       -0.4650886487        4.2934674762
 O          0.5159179971       -5.0171326017       -1.2231638116
 H          1.3256580134       -4.4736216545       -1.2262708115
 H         -0.1980611015       -4.4418178649       -0.8730835632
 O         -1.3782370338        3.6379718466       -0.9693149932
 H         -0.7036716194        4.0422529286       -1.5409917752
 H         -1.2955721768        4.0639462283       -0.0973999671
 O         -3.6594759140        0.1651946699        4.5022215408
 H         -2.9386606765       -0.0784348065        3.8640678183
 H         -3.2336640882        0.6870530166        5.1854010476
 O         -1.2645757822        3.2172776192       -4.0557653578
 H         -1.0114316894        4.0891459695       -3.7385653755
 H         -0.4687969417        2.6591032779       -3.9240689319
 O          0.7013730203        3.0235881518        1.0294544364
 H          1.2266155258        2.3246906741        1.4772125571
 H          1.1373055054        3.1758334812        0.1678516125
 O          5.4375973929       -3.8016913643       -2.3309105728
 H          5.3679398994       -4.6297434013       -1.8233088227
 H          4.5843814048       -3.7100989745       -2.7884580996
 O         -5.6697337922        0.3367459553       -1.5883084293
 H         -5.8827936611        1.2881948260       -1.5024912813
 H         -6.5395514957       -0.0979310136       -1.7332429220
 O          5.9732979059        0.2827162038        5.0579891867
 H          5.0149952140        0.3219980732        5.2061950163
 H          6.1955267467        1.0812361315        4.5614184856
 O         -5.3198608256        3.3940044520       -3.6514865232
 H         -5.9599245514        3.1229530186       -2.9738008796
 H         -4.6617769188        3.9084044530       -3.1606326472
 O          6.2403313513        4.1948999420       -0.6786522067
 H          6.5395179687        3.9257573341       -1.5897146170
 H          5.5141434946        3.5564645319       -0.4579331136
 O          8.3348657829        0.7309146170        0.2538611997
 H          8.3644696493        1.6505173517        0.5664347407
 H          8.2534019303        0.7735996660       -0.7180680945
 O          5.2932973275       -3.9449868852        1.7864495545
 H          5.8609788121       -3.5406991568        2.4502846411
 H          5.2499289549       -3.2847716226        1.0577975209
 O         -2.6456591968       -5.8954668400        1.1682903887
 H         -2.9968798399       -5.7254361297        0.2841023198
 H         -1.7588496608       -5.5040978197        1.1992374417
 O         -3.6458834339       -4.7269684860       -1.2077482056
 H         -4.0981349787       -3.8632849687       -1.3217407722
 H         -3.4213525221       -4.9986715822       -2.1283765629
 O         -3.8438685915        2.0852701527       -0.1133553770
 H         -3.7419441868        2.7762152863       -0.7674992433
 H         -3.0857230201        2.1535818213        0.4960670386
 O         -1.4933674101       -3.3236891044       -0.5093812028
 H         -1.4491765313       -2.7220442852       -1.2785652480
 H         -2.2323622033       -3.9365998279       -0.7247349841
 O         -4.6373872508        1.8499044314        2.6301717934
 H         -4.7788520727        1.1952320059        1.9119034098
 H         -4.3785671740        1.3217820583        3.4075916388
 O         -7.6524543832       -1.9364680529        2.2273516006
 H         -7.9541362433       -1.0211153449        2.2699250168
 H         -6.9006965043       -1.9993022331        2.8452606673
 O          1.1644327903       -1.5489075806        5.8257676283
 H          1.3289827541       -2.4813816068        5.5852110540
 H          0.2359772175       -1.5255729581        6.0951000111
 O          4.2009959521        2.9788653892       -4.0337037876
 H          3.9147715699        2.1317622337       -3.6225126390
 H          4.1147386859        2.8545751796       -4.9792020820
 O          3.5588299054       -0.5137353505        1.1226512490
 H          4.5021855187       -0.2595483065        1.1738284906
 H          3.4354104794       -1.2153793561        1.7825757249
 O          8.0443503581       -1.9813988054        0.8340240360
 H          7.9295515944       -2.0412572730        1.7873833262
 H          8.3740836509       -1.0905064356        0.6455677146
 O          5.5863408422       -2.1832362575       -0.2177286404
 H          5.5664204987       -2.7450303419       -1.0234676576
 H          6.5268917427       -2.1284155786        0.0588286233
 O          2.8866030867       -4.7367168607        2.6732129837
 H          3.8065606537       -4.5237399152        2.4123174801
 H          2.5845476125       -5.4152082265        2.0371938816
 O          4.5343079525        6.1575943959       -1.0806715800
 H          5.2304618834        5.4647747729       -0.9318280930
 H          4.9884488260        6.9972713858       -1.1352861170
 O         -1.9752524096        3.2678227873        3.9913861069
 H         -1.7794629559        2.5183941901        4.5806832192
 H         -1.1295146801        3.7491272764        3.9196296606
 O          6.2752082694        2.4149796550        3.1601254476
 H          6.9245728917        2.8491706693        2.5830377045
 H          5.4259718987        2.8715865867        3.0189226405
 O          6.0501861654        0.2725555755        1.6067734934
 H          6.8168215246        0.3789989626        1.0077550144
 H          6.0933503737        1.0307384288        2.2313793371
 O          3.0876753971       -3.6186978110       -3.7458871817
 H          2.1580272192       -3.2765754404       -3.7346176059
 H          3.0358997299       -4.4749307204       -4.1729205525
 O         -9.0089461346        1.5244789315       -0.5134728029
 H         -9.9005048125        1.7624919272       -0.2631178184
 H         -8.5602707936        1.1933164691        0.3163368713
 O         -2.9495407389       -4.9844231910       -3.7403653690
 H         -1.9985144981       -5.1907579766       -3.8504276197
 H         -3.1080785890       -4.1551222123       -4.2078724736
 O          3.8289344117        3.3045456675        2.4445421231
 H          3.1308153484        2.6678877005        2.6778363779
 H          3.3913217056        4.0809809388        2.0490883439
 O         -5.9073439235       -4.8054893512        0.6707915852
 H         -5.2669427994       -5.0368545327       -0.0129201684
 H         -6.4412796975       -4.0798865634        0.3187837311
 O         -1.4282049864        5.1036249677        1.3672726647
 H         -0.8815148511        4.9291503450        2.1424978265
 H         -2.3442070690        4.8513021120        1.6208951361
 O         -2.1774723191        0.6831412598       -3.2466735991
 H         -2.0075022899        1.6299723509       -3.2041137876
 H         -2.6256722945        0.4199862408       -2.4101492372
 O          3.6969357418       -1.2632407516       -5.0714451622
 H          2.8432747212       -0.9700346046       -5.4224872706
 H          3.5335774997       -2.1307186251       -4.6569527006
 O          1.2510548960       -4.0144614186        4.7881790707
 H          0.3214771111       -4.1557600143        4.5731655882
 H          1.7736757759       -4.4525186781        4.1003145156
 O         -7.7415879835        0.7908808867        1.6367489971
 H         -7.5681311987        1.6802155063        2.0107027867
 H         -6.8621866026        0.4148996871        1.4376386292
 O          7.9485528348        3.3351288064        1.1348311409
 H          8.6678004556        3.9609379050        1.2104592727
 H          7.3289177857        3.6963626906        0.4467703651
 O         -7.0093211085       -2.4131199284       -0.2851074697
 H         -7.2405872703       -2.2038518998        0.6567001808
 H         -7.6385956804       -1.9390960284       -0.8424561676
 O          0.6815594599       -0.8221538611        3.2352469268
 H          0.8230459954       -1.0789879780        4.1661959232
 H         -0.2878180171       -0.7223713040        3.0943849515
 O          1.0469603919       -0.2351799914       -5.2385528415
 H          0.1550238844       -0.1913438535       -5.6257498791
 H          1.0413493319        0.4470750028       -4.5350468478
 O         -5.4520812083       -1.9955007554        3.8755543676
 H         -4.9069568747       -2.7240752086        3.5572463310
 H         -4.8751960593       -1.2425871551        4.0548572831
 O         -4.7944213771       -0.1849464790       -4.0866155869
 H         -4.2842316862        0.5535879207       -4.4775209233
 H         -4.9325149184        0.0393338352       -3.1408156145
 O         -4.1170234582       -4.2008978527        2.5551114140
 H         -4.9635224963       -4.3651606464        2.0846487701
 H         -3.5514518047       -4.9179491699        2.1723787051
 O          2.7875780339       -3.6786071347       -0.6641967911
 H          2.4169363618       -3.3409533900        0.1702752872
 H          2.9638410949       -2.8837344667       -1.1951340502
 O          4.6097920075       -5.6315020607       -0.4133528873
 H          5.0961243549       -5.3923176413        0.3838327953
 H          3.9125582872       -4.9487621562       -0.4980282301
 O          7.5863039850        0.8167013974       -2.3631111090
 H          7.6035946065        0.0986986572       -3.0063622566
 H          6.7281628806        0.6631512419       -1.8907471118
 O         -7.3778276718        0.6279761313       -4.4154896076
 H         -7.2561797510        1.5796023751       -4.4318834766
 H         -6.4794561491        0.2463707926       -4.4713384129
 O          5.3378887958        0.3076994165       -1.1299084762
 H          5.3695480071       -0.6211783320       -0.8120361861
 H          4.7628392655        0.3262992185       -1.9222931884
 O          0.7512394550        1.6136949423       -3.2714348386
 H          1.3960585149        2.1368159059       -2.7701820367
 H          0.1929850731        1.2109584268       -2.5460347409
 O         -1.0265061282        1.1729908810        5.4199703164
 H         -0.1015054502        1.4473945390        5.3150298859
 H         -1.0554565097        0.2089368953        5.3249103787
 O          3.6295468907       -1.9578874048        3.4261964668
 H          3.3081885725       -2.7238540796        3.9065404563
 H          4.6152055294       -1.9909029535        3.4408937528
 O         -8.1384320732       -0.5447674497       -2.0818524399
 H         -8.0658295691       -0.2299335997       -3.0036223027
 H         -8.6049812545        0.1578195530       -1.5963747702
 O          0.7044036826       -2.6649787621       -4.1473026488
 H          0.8584168914       -1.8364075688       -4.6460815921
 H         -0.0643510773       -2.4617382805       -3.5663810391
 O         -5.2654990557       -0.1927760827        1.0199843129
 H         -5.3571933508       -0.0257238263        0.0592295258
 H         -4.6339889363       -0.9244439229        1.1137277326
 O         -1.6702640592       -0.1792907243       -5.7346925033
 H         -2.1850888497        0.4070968793       -6.2930355424
 H         -1.8535014826        0.1383907251       -4.8239654579
 O          3.6015658525        0.5580861562       -3.1308878038
 H          3.7329586833       -0.0643390731       -3.8776337397
 H          2.9795556904        0.1047937931       -2.5322717047
 O         -3.8424817016        4.3209225566        2.1854800948
 H         -3.8440630522        4.6251790737        3.0948260656
 H         -3.9950433674        3.3459152191        2.2532301201
 O         -6.9278919083        3.2447949983        2.3387757454
 H         -6.7466469525        3.8343511500        1.6011025824
 H         -6.0728819026        2.8267464798        2.5670030408
 O          0.4928448435        4.2521170684        3.4072391641
 H          0.7223588580        3.9305294084        2.5129105999
 H          0.9432243339        3.6407538484        4.0102409914
 O          2.7404517565        5.2706711864        0.9104208703
 H          1.8768150620        5.5876116947        0.6117544815
 H          3.3790371839        5.5926333099        0.2595202770
 O          6.2816061946       -1.7429562428        3.3192974734
 H          6.3500835794       -1.1789477305        4.1168224475
 H          6.2278728720       -1.0792242922        2.5918455446
 O          2.2649787089       -0.8970699047       -1.2809263019
 H          1.3483742749       -0.6285626396       -1.1409091991
 H          2.7192506140       -0.7458820628       -0.4301194081
 O         -0.3565007793        0.4746710291       -0.9769952141
 H         -0.4801739904        1.3299448430       -0.5540220650
 H         -1.1904546268       -0.0063637244       -0.8447346771
 O          8.8404320508       -2.5225369059       -2.1882842050
 H          8.6192966883       -2.4737032052       -1.2547393578
 H          8.1063445418       -2.1523993142       -2.6835842418
