  386
       -651.41528753
 H          1.3219117270        1.1306662914       -0.1074172148
 C          0.9064896477        0.1711391092       -0.4204928270
 H          0.7774403237        0.1624216413       -1.5008256449
 C         -0.4563581046       -0.0228902081        0.2410464773
 H         -1.1048008366        0.7732180463       -0.1136515639
 H         -0.3608471653        0.0762271090        1.3267680869
 N         -1.0170162285       -1.3173352091       -0.1452566332
 H         -0.7382898592       -2.0224152283        0.5268231111
 H         -2.0257667832       -1.2766904063       -0.1354090377
 O          1.8206914503       -0.8718342411       -0.1323887920
 H          1.9875432740       -0.8923501919        0.8294606309
 O         -4.3535564693       -5.4660817060       -1.9554424400
 H         -5.2661072487       -5.1572468256       -1.7927880125
 H         -4.1366593682       -6.0512931137       -1.2006657449
 O          3.3103644632        5.5950354493        1.0819470296
 H          4.2510007770        5.5121173707        1.2727010674
 H          3.2476139903        5.8879118386        0.1601898996
 O          2.2579871644        1.3992756369        3.4378609096
 H          1.6690289624        1.4280754756        4.2222112244
 H          1.8433814379        2.0331283020        2.8233223084
 O         -1.5089092214       -4.9824262031       -2.8085231459
 H         -1.2200542611       -5.7586265599       -2.3059779746
 H         -2.4627169983       -5.0600468650       -2.8848763429
 O          4.2334708635        0.3759741646        1.0458174184
 H          3.6285048091        1.1015663964        1.2656870304
 H          4.2924756778        0.4123782479        0.0651300129
 O         -3.7760371748       -0.3716233994        0.3094940889
 H         -4.5391992224       -0.8667841021       -0.0510029043
 H         -3.5004230731        0.2317260689       -0.4038905952
 O         -2.4324977739       -1.3573783581        2.6255423778
 H         -2.6944214186       -0.8044962360        3.3884652121
 H         -2.9289941234       -1.0477767373        1.8552483377
 O          2.0545205293       -1.0446869466        2.5875951968
 H          2.6772636254       -1.5386869827        3.1629851665
 H          2.2189148176       -0.0925247562        2.7935133859
 O         -0.1002743148       -2.8517032444        2.2417849586
 H         -0.8647112924       -2.3454221974        2.5538677901
 H          0.6758171055       -2.2935929285        2.3852447140
 O          3.1901037760        6.5613620174       -1.5146243694
 H          3.1843349070        5.9359548474       -2.2582696271
 H          4.0334353607        7.0141503322       -1.5740993905
 O          2.9758624141        2.7374354674       -5.5788612527
 H          3.6008052627        2.3689657123       -4.9157922404
 H          2.7307625011        1.9549820058       -6.0958641167
 O          0.4590454493        3.0419168673        2.3370559585
 H          0.7876564721        3.8994479456        2.6889156544
 H          0.4093022027        3.1628880528        1.3775179025
 O         -5.1095540388        4.4865473290       -0.4677979059
 H         -5.2293753681        4.3754015190        0.4961849556
 H         -4.2854125343        4.9904373900       -0.5339981190
 O         -0.1914910517       -2.5180437415       -2.4112281046
 H         -0.6668734027       -3.3569921525       -2.4848044358
 H         -0.5476000578       -2.0432313249       -1.6211462317
 O         -4.2004445397        0.2970497982       -5.8601889246
 H         -4.7804145773        0.8709171857       -6.3597949665
 H         -3.6449735123        0.8873466762       -5.2856293053
 O         -8.2540796640       -1.1540270788       -0.0500340707
 H         -8.5353602882       -0.2139177648       -0.0790197109
 H         -8.6147088423       -1.5196633272        0.7929952613
 O         -1.3452857250        5.2259773305       -2.5995299267
 H         -0.5612398525        5.6956781006       -2.2827495049
 H         -1.1321912904        4.2703195297       -2.5383984292
 O         -1.4136481892        3.5237959672       -5.7472745335
 H         -0.9953288915        2.7645947130       -6.1890163431
 H         -0.6769760183        3.9123444256       -5.2430414846
 O         -0.9259643583        0.1037679707       -3.3360646829
 H         -0.3491332685       -0.4621104120       -3.8784156624
 H         -1.5787902163       -0.4938264740       -2.9267528230
 O          1.2992991068       -3.5083963044       -0.1815070828
 H          1.3371227946       -2.5387754445       -0.3107029203
 H          0.3706031651       -3.7662033211       -0.0190348569
 O         -3.8644702586        1.5313781962        2.1914031553
 H         -2.9264442669        1.5000178568        2.4742584417
 H         -3.9692032593        0.8468567588        1.5032480851
 O          2.4051256639        2.8477141146       -2.0818324794
 H          2.0422199446        2.2375215072       -2.7593903230
 H          2.8689644574        3.5501537849       -2.5747869098
 O         -0.5111653812        2.6864647712       -2.5072321118
 H          0.1002277974        2.9841381090       -3.2023302774
 H         -0.6136618150        1.7340334785       -2.6546291793
 O         -5.8032496936       -1.5465361171       -0.9548850773
 H         -5.7770118454       -1.1028528866       -1.8133009993
 H         -6.6682754645       -1.3230362044       -0.5471632227
 O          4.6935848255       -2.2446802050        1.1883195544
 H          3.9187007058       -2.7655627940        1.4788494141
 H          4.4602422512       -1.2996062716        1.2460765082
 O         -4.4449272835       -4.3023211712       -4.5407073235
 H         -4.4727463779       -4.9040658936       -3.7889404822
 H         -5.2469045056       -3.7588347751       -4.4683725337
 O          0.9173483260        3.9644119891       -4.4388672393
 H          1.3728888132        4.7506561718       -4.1330080678
 H          1.6030929807        3.4270622603       -4.9076078316
 O          5.1292799073        3.3881839558       -0.4932637657
 H          5.5866558251        3.8792906066        0.2254265890
 H          5.5879448635        2.5303616759       -0.6264109855
 O         -2.9938507094       -1.4101021256       -2.7398310774
 H         -3.8464318861       -0.9924239464       -2.9331525604
 H         -3.1322230054       -2.0503944037       -2.0154322353
 O         -1.4755807449        1.4683091694        3.3268292321
 H         -0.7905780241        2.0901462510        3.0098159606
 H         -1.8157868320        1.8082171219        4.1747029107
 O          2.7380369274       -3.8061458515        1.9897773229
 H          2.1106381749       -3.7341199052        1.2312067782
 H          2.2407905357       -3.8792425962        2.8218414612
 O         -2.7296456238        1.7701636851       -4.2534184967
 H         -2.2843029115        2.5037450496       -4.7357642777
 H         -2.0101475315        1.1235003840       -4.0447767379
 O          5.8730100039        4.8875422314       -2.5890276404
 H          6.4550539647        4.3059177552       -3.1008491704
 H          5.6369100655        4.3703765275       -1.7866259795
 O         -5.8323353589        1.8906229604       -1.0178701291
 H         -5.8010541756        2.8383435826       -0.7992363612
 H         -4.9075435269        1.6832253659       -1.2786741833
 O         -6.3294831806       -0.4574946194        4.8786274305
 H         -5.7767852754        0.3545128051        4.9311811920
 H         -7.2095209230       -0.1672207264        4.6061873518
 O          2.5591182194        0.1000524923       -6.4668151156
 H          1.9927226440       -0.5090484680       -5.9626267810
 H          3.4622483230       -0.1638171897       -6.2502129486
 O          2.2511320198       -1.5397782705       -2.8727300239
 H          1.3744337530       -1.9212431587       -2.6569546896
 H          2.8903371214       -1.8675077324       -2.2080604019
 O         -3.2465164758       -0.4918310816        4.9949188445
 H         -2.5036105346       -0.3012546767        5.5976725901
 H         -3.8012728337       -1.1416018168        5.4286851196
 O          7.1366888345       -0.7773133863        0.8148389321
 H          6.7071396488       -0.1031245437        0.2476895901
 H          6.8702004849       -1.6591390972        0.5007880300
 O          4.1747372703        0.3938545479        5.1033547730
 H          3.8626835920       -0.5269834026        5.0346659265
 H          3.7496971727        0.8679209908        4.3673658438
 O          3.8619220101        0.6886115657       -1.5656688767
 H          3.2369052909       -0.0238425575       -1.7393955121
 H          3.3531826891        1.5250432499       -1.5578845121
 O          2.9010387692        4.1929027912        5.1182087530
 H          2.8902999523        3.5521042279        5.8402317471
 H          3.5939607288        3.8756384803        4.5078660057
 O          5.9743712249       -5.6030497316        2.8787017884
 H          5.2094758151       -5.9396551767        2.3845662063
 H          6.7372276971       -5.7275699763        2.3097431503
 O         -6.5687809153       -4.1466904331       -1.2056031759
 H         -7.4268931798       -3.9719676066       -1.6139597924
 H         -6.1622496261       -3.2602682425       -1.1033723251
 O         -1.2084096647       -4.4272733649        0.1601884940
 H         -1.8945816070       -3.9353779258       -0.3411822846
 H         -1.6108008186       -4.6721043625        1.0129512331
 O         -7.1829925949       -3.5487648554        3.0133851880
 H         -6.6760002129       -2.7896649727        2.6655642243
 H         -6.9603493945       -4.3103507397        2.4467356545
 O         -1.2419455973       -6.9138349135       -0.8263307093
 H         -2.0807885331       -7.2869545469       -0.5441983546
 H         -1.1992049964       -6.0173140065       -0.4197688844
 O          1.3495366670       -6.6501439843        0.0256905385
 H          1.5606884746       -6.1334652852       -0.7675643681
 H          0.5295177119       -7.1084141940       -0.2083938342
 O         -4.9439375848        1.7885008079        4.6244326728
 H         -4.1791625245        1.9967627380        5.1790624760
 H         -4.5612379637        1.5825182621        3.7429819162
 O          5.9088486055       -2.9925008996        3.3939960308
 H          5.8907826342       -3.9742560974        3.3461972547
 H          5.6165071376       -2.6947540964        2.4966330982
 O          4.3226482433       -2.3926763665       -1.4508236271
 H          4.4110463800       -3.2948749114       -1.8205249181
 H          4.5435611452       -2.4359209629       -0.4990552501
 O         -2.1073399944       -2.9803689552       -4.7581396692
 H         -2.9075443884       -3.5353209986       -4.8332332672
 H         -2.2863103226       -2.4149534948       -3.9777896613
 O         -5.9442986468        4.8533072918       -3.0232012883
 H         -5.6487131506        4.7997147629       -2.0971007242
 H         -5.1612768896        5.1037777510       -3.5380330712
 O         -1.9011626142        3.1698297949        0.1040059809
 H         -0.9795262830        3.2130667372       -0.2177634487
 H         -2.2857651042        4.0488297134       -0.0865848524
 O         -1.1562257445        0.0186472725        6.6900263520
 H         -0.8669798446       -0.8920655675        6.7980148496
 H         -0.4505780438        0.4548407804        6.1724169907
 O         -8.4045675270        4.3691224887       -1.7877719166
 H         -8.4314817431        3.4770432355       -2.1792708937
 H         -7.7132012234        4.8319132260       -2.2769810405
 O          1.5762601816       -4.0882535086        4.4873942875
 H          0.7858199837       -3.6772858568        4.9052233611
 H          1.2929101168       -4.9669937604        4.2110122599
 O          0.3989939899       -5.5939042156        2.4370823879
 H          0.7765287684       -5.9519355979        1.6144530279
 H          0.2542185269       -4.6420672202        2.2853479756
 O          6.4614288798        1.0951588484       -0.9132225976
 H          6.3029360952        0.5071499478       -1.6830084859
 H          7.2838229096        1.5945518197       -1.0877115627
 O          3.0374011634        2.7692633658        0.9953220455
 H          3.7646167074        3.0126062942        0.3752755721
 H          2.2873509764        3.3036636852        0.7029479480
 O          6.2617318175        1.3920681280        2.4497703773
 H          5.6442075576        0.9331353314        1.8408404084
 H          6.5494208869        0.7213169024        3.0958470167
 O         -4.8367922944        4.0121667303        2.1531489800
 H         -4.5027996639        3.0907783675        2.0743779648
 H         -5.6669587314        3.9465342648        2.6378146350
 O          0.5934778551       -1.3930853457       -5.1427282191
 H          0.6152118644       -2.2993737935       -4.8082993669
 H         -0.1200525654       -1.3691759645       -5.7913203535
 O          2.9869172865        1.9923806223        6.8997458933
 H          3.4026921260        1.9479393853        7.7594422370
 H          3.4873881254        1.3823005861        6.3081484641
 O         -5.5005572190        2.3555025151       -3.9046667483
 H         -4.5494172891        2.4386582077       -4.0442844840
 H         -5.7813814017        3.2416094859       -3.5955495800
 O         -2.1227453995        4.3575956715        2.5659305553
 H         -3.0857012944        4.4685397616        2.5945026427
 H         -1.9664894998        3.7292192670        1.8327468305
 O         -5.3920163938       -0.2839745474       -3.4904342939
 H         -5.0288692626       -0.3231364301       -4.3976441232
 H         -5.5483015457        0.6736835284       -3.3711520968
 O          3.1992002912       -3.1053299680       -4.7925873728
 H          2.8323656676       -2.4820183310       -4.1172924444
 H          2.4394464808       -3.5819319760       -5.1343079122
 O          7.1388499630       -3.3144494819       -0.0573680068
 H          7.7334314592       -3.4980775161        0.6948658497
 H          6.6174748964       -4.1299911925       -0.2187588611
 O         -7.9837053635        1.7738255977       -2.6210213830
 H         -7.6581557070        1.8045167264       -3.5227390761
 H         -7.1764711523        1.7565715713       -2.0571795977
 O         -9.1477909486        1.3574347097       -0.1592807302
 H         -8.5719544319        2.0618791452        0.2189157814
 H         -9.1063235793        1.4915050863       -1.1142112633
 O          0.7254840386        3.7164509989       -0.2567724293
 H          0.6587026561        4.6693318612       -0.4662643942
 H          1.2183788297        3.3178359114       -1.0104051141
 O         -3.8878259498       -6.7160264605        0.4065463416
 H         -3.2949160689       -6.4054704708        1.1124016264
 H         -4.7805153204       -6.5343325576        0.7445332286
 O         -5.6970017014       -1.3054208386        2.4110055496
 H         -5.9548552135       -0.5107691714        1.9078266113
 H         -5.7681332236       -1.0410326069        3.3513656774
 O          1.5404368614        5.3433057365        3.1156980627
 H          2.0496930595        5.0519228121        3.8965066266
 H          2.2079299318        5.4703245292        2.4129571471
 O         -2.6803820773        5.7002477957       -0.3931482689
 H         -2.1768311827        6.3051870210        0.1573403291
 H         -2.2417431998        5.6681592982       -1.2755403174
 O         -1.8358034044       -0.9822329375       -6.5038917053
 H         -1.9784968893       -1.7861389162       -5.9539907751
 H         -2.7027557322       -0.5504645036       -6.4967396092
 O         -5.3859810113       -3.0432538120        5.0794996519
 H         -6.0545090531       -3.4766403432        4.5232203137
 H         -5.7432253625       -2.1551991992        5.2293124841
 O         -2.2510966644       -5.6282348929        2.3601658754
 H         -1.3186654959       -5.8789015868        2.5288346613
 H         -2.5128697027       -5.0656381415        3.1054591742
 O         -0.0983696044       -0.6554848574        4.2468194179
 H         -0.6355957821        0.0650995589        3.8672778276
 H          0.6833463501       -0.7608946963        3.6872574598
 O         -0.5707714995        6.3998819984        1.6227009686
 H          0.2083066556        6.3053192854        2.1871168968
 H         -1.1862231849        5.7148475250        1.9533300262
 O         -3.5024370200        4.8577658819       -4.2910106202
 H         -3.0567943255        4.5639326610       -5.0915647099
 H         -2.7887384561        5.1223612802       -3.6937445458
 O          1.6396131662        1.0177634450       -3.8086993701
 H          1.8608318221        0.0910560411       -3.6324405667
 H          1.0391334832        1.0387605811       -4.5630377983
 O         -9.2431465018       -1.9779535797        2.2666150424
 H         -8.6849324548       -2.7117692417        2.5871269356
 H         -9.0298218056       -1.2290464454        2.8482981019
 O         -2.4815880813        2.3606645869        5.7489791915
 H         -2.1131871933        1.7103864663        6.3583971437
 H         -1.9317830352        3.1530291552        5.7901292141
 O          0.3660224231       -4.1782648936       -4.7619934827
 H         -0.5544446451       -3.8803173128       -4.5846909239
 H          0.2772554595       -4.9941962884       -5.2535750641
 O          6.0687732329        4.7915874038        1.5822433101
 H          6.9800242561        4.4543056832        1.6443497155
 H          5.5870597013        4.3579941554        2.3188746762
 O         10.9798900152        2.3624812197       -1.2061967198
 H         11.0455931515        1.5692021491       -1.7434523925
 H         11.0449626277        2.0854440721       -0.2804528642
 O          9.0195036576       -0.6403408831        2.7328134407
 H          8.5618486346       -0.4752448553        3.5635449772
 H          8.3134814492       -0.6340903600        2.0541002526
 O          8.8419350189        0.6320915278       -3.1762669101
 H          9.0109788217        0.3932735701       -2.2424350326
 H          8.6278475112       -0.1900297540       -3.6203505457
 O          4.9354919189       -0.9434496501       -5.1618624848
 H          5.4829471512       -1.0124152960       -4.3529045290
 H          4.4304010615       -1.7685553984       -5.1872476768
 O          8.3529138607        2.9428086059       -1.2221929291
 H          9.3219738049        2.8196540732       -1.2928483170
 H          8.0376786100        3.1573378099       -2.1142048050
 O          8.1785280907        3.0535640692        1.4868876613
 H          7.5232741200        2.3866000590        1.7746746528
 H          8.1662833564        3.0689230746        0.5142824895
 O          4.7573187807        1.5446401458       -3.9668988625
 H          4.5259695413        1.2112483865       -3.0743092113
 H          4.8529525794        0.7479023998       -4.5117546994
 O          7.1814245704        2.7457672423       -3.7084102666
 H          7.8268606611        2.0171380324       -3.6997961151
 H          6.3137089651        2.3143090886       -3.8420915907
 O          5.7200586666       -5.5003221074       -0.5622697363
 H          5.2971641885       -5.3823903752       -1.4228025695
 H          5.0168509100       -5.7680184608        0.0593337960
 O          4.5509988114        3.2806813361        3.1887631782
 H          5.2021718542        2.5521423249        3.0989013442
 H          3.8948257917        3.1261254105        2.4781505883
 O          6.1291908334       -0.8794621637       -2.7237421547
 H          6.9508573808       -1.4104855994       -2.6218117731
 H          5.4366636492       -1.3855954824       -2.2464238807
 O         -8.4817210702        0.4989930451        3.3036527038
 H         -7.8926699939        0.5655804450        2.5291662895
 H         -9.3745335825        0.7292368721        2.9697113819
 O         -0.6209834688        4.1779498500        4.8610908372
 H          0.0563218061        4.8537015566        4.7831286252
 H         -1.1464701339        4.2263250105        4.0363444400
 O         -3.3073321522       -3.2657238376       -0.9066567503
 H         -3.6962224589       -4.0393224669       -1.3690951479
 H         -3.7591888858       -3.1989982967       -0.0428125055
 O         -8.7864888323       -2.7807930071       -2.1034461335
 H         -8.6440241329       -2.1424150359       -1.3654123631
 H         -9.7314158516       -2.8889137100       -2.1989255511
 O          3.5133836242        4.8061956174       -3.6109778332
 H          3.5521438156        4.4197221188       -4.4920822560
 H          4.4644110868        4.8502623958       -3.2991757782
 O         -7.6854745668        3.4720227651        0.6147184118
 H         -7.9240190691        3.9549888790       -0.2103016658
 H         -7.9975499382        3.9883988443        1.3574159341
 O         -3.2627825241        1.5382612956       -1.5322855965
 H         -2.7458468350        2.1673215846       -0.9849092894
 H         -3.0246860370        1.6954370103       -2.4599626888
 O          0.6243400202        1.8068626897        5.5334468501
 H          0.2544588273        2.6807563837        5.3077966643
 H          1.3275171805        1.9482526721        6.1839253941
 O          8.5086475116       -3.3817076736        2.2855712536
 H          7.7276440711       -3.2879869721        2.8509271867
 H          8.9958078571       -2.5508044463        2.3912850495
 O         -6.1250190709       -5.2961327903        1.2005517438
 H         -5.3910657219       -4.6578235202        1.3335901651
 H         -6.5000730021       -5.0359568942        0.3414769030
 O         10.3221660681        1.3542442051        1.3429129681
 H         10.0951470760        0.6544178572        1.9799217567
 H          9.6619390912        2.0606900495        1.4968149253
 O          4.2059854052       -4.7062821222       -2.7842881771
 H          4.1469629218       -4.2580743687       -3.6437259597
 H          3.2812878693       -4.9744903139       -2.5889890842
 O          3.8017986804       -6.1321525681        1.2600874168
 H          3.0540312068       -6.6134845547        0.8837796093
 H          3.4303439927       -5.2702674410        1.5517550569
 O          1.6049787060       -5.0488342217       -2.3202013948
 H          1.0729717023       -4.7694557570       -3.0807635205
 H          1.4787229692       -4.3597983368       -1.6321360536
 O          8.3239959500       -2.3053242565       -2.2336338929
 H          8.9945931827       -1.7643908488       -1.7989608849
 H          7.9178095494       -2.8239755689       -1.5063060162
 O         -7.0676000429        2.9650312636        3.4813415078
 H         -7.8038521385        2.3553798635        3.6198835446
 H         -6.3611406005        2.6480514846        4.0747683269
 O         -6.5740515946        1.0131868985        1.3945109442
 H         -6.5624921207        1.8523045304        1.8772295081
 H         -6.3546029065        1.2541555935        0.4700642147
 O         -4.3112102935       -3.3706008447        1.5340791826
 H         -3.7553855545       -3.6305110274        2.2836414429
 H         -4.7638889008       -2.5432856366        1.7998775398
 O         -6.6637529640       -2.7256050249       -3.9921690231
 H         -7.4723718708       -2.7980047793       -3.4702342080
 H         -6.3304156275       -1.8299687106       -3.8502264305
 O         -0.6555505036       -2.9363112403        5.4807283987
 H         -0.5058562523       -2.0835776855        5.0211766200
 H         -1.4424279158       -3.3242427923        5.0700729676
 O          0.4891131971        6.3090456203       -0.8674241853
 H          0.1628682869        6.5317216163        0.0276628794
 H          1.3837953393        6.6581570537       -0.9633763304
 O          6.7044877483       -0.4867934991        4.3480088119
 H          6.4910872171       -1.3941525113        4.0797316373
 H          5.9218799482       -0.1517068539        4.8141857481
 O        -10.7639323168        0.7486514435        1.9469780091
 H        -10.9863940888       -0.1799634120        1.8440581567
 H        -10.3570663599        1.0312076126        1.1082372243
 O          9.3518407912       -0.2302319734       -0.6475077957
 H          8.5639669141       -0.5079666491       -0.1357893746
 H          9.8453688203        0.3287942514       -0.0185665945
 O          3.5793472238       -2.1821162000        4.4527021890
 H          4.4344359170       -2.5631348950        4.1513245507
 H          3.0058967587       -2.9235698218        4.6953144417
 O         -2.9820622229       -3.5735890387        4.0015252431
 H         -3.8195779056       -3.4416338197        4.4909964619
 H         -2.7718140662       -2.7165960716        3.5695121091
 O         -0.1198584105        1.1872314382       -6.2086854211
 H         -0.7474253091        0.4562723863       -6.3514380044
 H          0.6697904066        0.9752229052       -6.7146324428
