  450
       -763.96703894
 O         -0.0692536944       -0.0737037017        0.0637805430
 H          0.1408594831       -0.8906643366        0.5519560406
 H          0.6114086569       -0.0006449919       -0.6283600718
 O          0.0952687444        5.2243495144        0.1920482611
 H          0.8576500244        5.7668939474        0.4540333377
 H          0.4202736455        4.3543394880       -0.1269625803
 O         -0.7281894956        4.7488850109        2.6964204678
 H         -0.5205004118        4.9496601504        1.7608187000
 H         -0.9784831674        5.5789485941        3.1336455561
 O         -2.2011126955       -3.1228612550        2.5078463831
 H         -1.4164001420       -2.7986631085        2.0117020941
 H         -2.4738545910       -2.4019783676        3.1329070436
 O          3.1014486219       -1.6370950336        4.1275878114
 H          3.1465897914       -1.0539241110        4.9142493313
 H          3.6635964024       -2.4148303279        4.3292335184
 O         -0.0452441984       -2.5686544715        1.0398849040
 H          0.6356581848       -3.0378774896        1.5522695844
 H         -0.3072641540       -3.1710555539        0.3210802473
 O         -3.6348476080       -5.3905222547        2.5308625873
 H         -3.1393731986       -4.5476300817        2.5438615855
 H         -3.6129067179       -5.7116586086        1.6069771587
 O          1.2339022569       -4.9325479489        4.9322274937
 H          1.5496370865       -5.6875954287        4.4079884389
 H          1.2368746687       -4.1634675609        4.3374888325
 O          1.9195691221       -1.6330992830       -5.3271353750
 H          1.2426214827       -1.3749124971       -5.9705601826
 H          2.1725274534       -0.8381352801       -4.8085447069
 O          0.2883328767        4.3891524120       -3.3072021675
 H          1.1193416685        4.8642897218       -3.4759590559
 H          0.4872827905        3.4482650439       -3.4791101057
 O          1.7969154625        7.4185886682       -2.4143748459
 H          2.0142468098        6.8881423523       -3.1913500205
 H          2.5406397143        7.3433740182       -1.8082394098
 O          0.5178584934       -2.4609704919        3.9014975695
 H          1.4248581305       -2.1038948181        3.9008731990
 H         -0.0203842269       -1.8206760948        3.4036542487
 O          0.5278217012        1.7239319845       -3.4460872876
 H         -0.2876311679        1.3697518313       -3.0036409103
 H          1.2561720688        1.2150161025       -3.0570138681
 O         -1.4775633370        0.5045196420       -2.3862115722
 H         -1.7286503092        0.9671519967       -1.5519504199
 H         -1.0627685713       -0.3403275597       -2.1353212073
 O          1.6851352975       -0.2884889885       -1.9597718108
 H          2.3297580969       -0.8452482427       -1.4950331730
 H          1.0243735587       -0.9303733797       -2.2674277342
 O          0.7086783810        2.7977458047       -0.7134618580
 H          1.4255944382        2.2982072328       -0.2711123680
 H          1.0169070504        2.9222088266       -1.6204013978
 O         -2.7619116127        0.6110681049       -4.6602185983
 H         -2.3703080837        0.5241479835       -3.7623227898
 H         -2.7640197609        1.5687280809       -4.8542198612
 O         -2.0947474582        2.4729210174        2.5342079699
 H         -2.0843778481        2.0966751635        3.4337446582
 H         -1.8593340084        3.4122714804        2.6219285755
 O          3.3274518145       -5.4155073208        0.4523112568
 H          2.9028999983       -6.0643644524       -0.1341219278
 H          3.9953264881       -4.9452321287       -0.0720192213
 O          4.0557226724       -2.3296470430       -6.7155146033
 H          3.2939753119       -2.0611465809       -6.1427359901
 H          4.4921112780       -1.5117790464       -6.9617902555
 O         -1.7280138279        1.0886326240        4.8705509143
 H         -1.4233749847        0.3607867034        4.2918029741
 H         -2.5030775884        0.7403594461        5.3490304866
 O          1.3237543360        0.5869052054        4.2235613510
 H          1.0251523479        0.0816121244        5.0024275581
 H          0.8522976006        1.4463512739        4.2385663496
 O          4.9457292133        2.5101303231        1.3556278998
 H          5.2952615778        2.3169337081        2.2397878690
 H          5.0967217650        3.4580928401        1.2259185191
 O          3.6796627740       -2.7480599086        1.7453889125
 H          3.4881824213       -2.7518147625        0.7873113145
 H          3.0454144326       -3.3479663741        2.1558530850
 O         -5.1379994549       -5.1030130286       -2.9904071392
 H         -4.5210689893       -4.5900209020       -2.4308238393
 H         -5.8660292160       -4.4614598783       -3.2098200835
 O          2.9675853446        0.5584365518       -4.2659144216
 H          3.3880473636        0.5298823744       -3.3876006238
 H          3.6828908692        0.5471346228       -4.9226709433
 O          3.0739733994       -2.3307674005       -0.8249326972
 H          2.3801986533       -3.0112256214       -0.9782681860
 H          3.5820074207       -2.3844465099       -1.6657924738
 O          2.0048971731       -0.5318456310        1.7947465158
 H          2.5956271407       -1.2737093387        1.9750319941
 H          1.7517041822       -0.1406767708        2.6476540126
 O         -1.8736658796        1.9065457522       -0.2327096145
 H         -2.0682153906        1.7531054233        0.6990997995
 H         -0.9839226327        2.2897691432       -0.2950019112
 O          2.6951073098        3.2577729568       -2.6771112653
 H          2.8129741416        3.7705378982       -1.8642610570
 H          3.3439567815        2.5523904100       -2.6490680835
 O          0.2008228761       -1.4422711312       -7.6043701165
 H         -0.7149899383       -1.1308305833       -7.4457406799
 H          0.6830184951       -0.7042571183       -7.9914014370
 O          6.6328761102       -1.9067250695       -1.5883553760
 H          6.0674471837       -1.3833045405       -0.9804594885
 H          6.5010601576       -1.5630944012       -2.4782107674
 O          4.1178374601        3.2341998915        5.9800349062
 H          4.7997449967        2.7632516081        6.4622230325
 H          3.9301266434        2.6659874188        5.1847901743
 O         -5.4020504109        0.5708485742       -4.6411980557
 H         -4.4214095482        0.5021492178       -4.5523201488
 H         -5.6002978403        1.5013412088       -4.7646256585
 O         -0.9130499603       -1.7503887942       -4.7336134479
 H         -0.6516626265       -0.8782254370       -5.0780084778
 H         -1.8426391734       -1.7069425598       -4.4359164300
 O          2.7976516075        1.3690302755        0.1920807906
 H          3.5232432304        1.7876550526        0.6906503683
 H          2.4756159922        0.6289252787        0.7605958779
 O         -2.4475576173        8.2823333303        0.0240349639
 H         -1.8510366013        7.9356470434       -0.6652912931
 H         -1.8940709477        8.3331237564        0.8136707467
 O         -3.4075198805       -3.8423852486       -1.3618653941
 H         -3.1933743667       -3.0690432452       -0.8177829274
 H         -3.3322656057       -4.6287409520       -0.7902621503
 O         -4.5202203756        2.5267339572        0.8562950505
 H         -4.0696823814        1.7431727087        1.2448073363
 H         -4.6050600353        2.3126433977       -0.0952176439
 O         -2.0490004468        3.9755924335       -2.0096086733
 H         -1.1217181037        4.0535180932       -2.2690916636
 H         -2.4999079028        4.7387115321       -2.4204807542
 O         -0.9976753766       -0.4828978857        2.8362361551
 H         -0.3541035307        0.1909746375        2.5647511557
 H         -1.8510967269       -0.2628659870        2.4166350894
 O         -6.1546472977       -1.8795177717       -5.6274387154
 H         -5.8923560155       -0.9712247618       -5.4084294891
 H         -5.4021906796       -2.2913744222       -6.0642306921
 O         -4.4398769345       -2.2176167065        1.2245735418
 H         -5.0767045873       -2.7234824923        1.7677316928
 H         -3.5577721174       -2.5530734058        1.4669219410
 O          2.1646328923       -7.1677004476        3.5510369562
 H          1.7303517628       -7.4360386483        2.7057291775
 H          2.1154141554       -7.9258631420        4.1320121600
 O         -1.5037393286       -4.5236951760       -3.2595558797
 H         -0.7359291840       -4.1721055380       -3.7455557959
 H         -2.1364839902       -4.8788595747       -3.9134174227
 O          5.5171402567       -4.2280421175       -0.7473290075
 H          5.9041994385       -4.1619089826        0.1439889020
 H          5.8827610748       -3.4566186006       -1.2213112085
 O          0.3450272906        1.7545790219        1.8878054578
 H         -0.5393306446        2.1231664342        2.0887287314
 H          0.2555705902        1.1727495362        1.1025728186
 O          3.9830009113        6.7665283801       -0.5466416605
 H          3.5991489984        5.8530886508       -0.4467348465
 H          4.7699872036        6.7295829727        0.0065950551
 O          0.9174827575       -3.7994479243       -4.1910719043
 H          1.2673860285       -4.4833525787       -4.7940657402
 H          1.2838847369       -2.9487866196       -4.5098372231
 O          7.8809308922       -1.6594410134        0.9500798226
 H          7.7998070907       -1.7942835330       -0.0024284893
 H          7.3029568134       -2.3310612197        1.3450342996
 O          5.7196234629        5.2068137206        1.2158261880
 H          6.5599629517        4.8187520030        0.9377884195
 H          5.7328960598        5.2446704279        2.1814113872
 O          4.7391719566       -3.6500042910        4.6599472574
 H          4.6449398032       -4.4089135362        4.0524092165
 H          4.3135091777       -3.9345726178        5.5080233201
 O          0.7075465835        5.7486692801       -6.6205708653
 H         -0.1493503690        5.7122675880       -6.1638659214
 H          1.3722642582        5.8987445595       -5.9370306416
 O          6.1659764551       -3.6536366040        1.8565718136
 H          6.0955874193       -4.4595806396        2.3748643511
 H          5.2698172798       -3.2391957918        1.9055238001
 O          2.1440033130        0.7476607624       -7.5111777397
 H          1.5110079459        0.6705949599       -6.7595961832
 H          1.9618402684        1.6195361707       -7.8828887759
 O          0.8655304549       -7.7925590374        1.2878610501
 H          1.3439586751       -7.6093935047        0.4665610085
 H          0.2255474613       -7.0631273454        1.4281286561
 O          4.8874840938        5.5102415044       -2.9493528308
 H          5.0935040659        4.7124536503       -2.4195091611
 H          4.7066297549        6.1943239212       -2.2900512613
 O          1.6980517193       -4.3545340745       -1.7540729364
 H          2.4732999550       -4.9014451490       -1.9792811534
 H          1.3592135819       -4.0426038068       -2.6238456334
 O         -0.6951239488       -4.5835535631       -0.6129418006
 H         -1.2982413194       -4.4780477746       -1.3635820242
 H          0.2024863428       -4.6269965425       -0.9980597870
 O          7.3374261695        0.9745756745        1.2449016493
 H          7.6236837343        0.0414406567        1.1660402550
 H          6.3983499150        0.9826002487        1.0113134691
 O         -2.1691294493       -2.5070935753        6.5119605382
 H         -1.8604767224       -3.2716485013        5.9716754716
 H         -1.7835453326       -2.5881844065        7.3834223147
 O          2.5908815449        3.0246594468       -5.4382375476
 H          1.9774345557        3.0319978130       -6.2001709052
 H          2.3752597715        2.2709365904       -4.8651072681
 O          5.4416832707        3.4287467810       -1.3252478472
 H          5.2710068249        2.5285481950       -1.6601647147
 H          6.2885845863        3.4111263780       -0.8591961996
 O          1.5390961313       -4.4285637275        2.1638843706
 H          0.7122444342       -4.9332289615        2.2306571965
 H          2.0792719207       -4.8830845278        1.4947959781
 O         -5.3814356284        3.6388394377       -3.8608948342
 H         -5.3669009175        4.5793274810       -3.6752473246
 H         -6.2894252057        3.3168902478       -3.5775597972
 O         -3.6125545097        2.8512664307        7.2813946548
 H         -3.6939661715        3.3072727536        6.4280029830
 H         -2.6646238309        2.8545010973        7.4731040093
 O         -2.7373497954        4.5301668423        0.5295396099
 H         -3.2394118496        3.7127768284        0.7218988038
 H         -2.2184921856        4.3103606086       -0.2678820266
 O         -0.9948276248       -3.8030636434       -6.4097033692
 H         -0.4915408053       -3.5961264348       -7.1988461867
 H         -0.8021697796       -3.0779980425       -5.7650733110
 O         -1.4274273833       -4.4519437945        4.8632608096
 H         -0.4906995531       -4.7027088732        4.9669857426
 H         -1.5068517905       -4.0090734255        3.9989184130
 O         -1.6676999170        6.9943550706        3.9150769559
 H         -1.2714298597        7.6185609388        3.2846017348
 H         -2.5615705137        6.7954820306        3.5946788096
 O         -0.7839690897        6.9432951940       -1.6758537124
 H          0.0788676570        7.2449389145       -2.0055620888
 H         -0.5699836296        6.2461280759       -1.0188554386
 O         -3.0646585470        3.1644977231       -5.3406463447
 H         -3.9102543048        3.3900827980       -4.9262515190
 H         -2.4797506419        3.9507518353       -5.2229734316
 O         -3.7830620898        5.6631203917        2.7771630175
 H         -3.2299844708        5.3408261422        2.0420379807
 H         -4.6927645721        5.6080205579        2.4475121950
 O         -3.3123049272       -2.2152370036       -3.6719966538
 H         -3.6800856660       -1.4617096726       -3.1660162330
 H         -3.1796419754       -2.9244298482       -3.0251392709
 O         -7.6282901040        2.7227982922       -2.9660004760
 H         -7.6280038541        1.7540664103       -2.9146182413
 H         -7.7178578829        3.0173626196       -2.0332628193
 O         -0.3838794729        8.4070590476        1.9523900912
 H         -0.0869449090        9.3132279807        2.0272304812
 H          0.3820838891        7.8902215264        1.6282232459
 O          2.3307372168        3.4162851220        2.1320673401
 H          1.5046284757        2.8789551987        2.0361446811
 H          2.9094837764        2.8533914483        2.6858556276
 O         -5.8845328425        4.9372648280        1.0634377768
 H         -5.3076484906        4.1574336142        1.0164640572
 H         -5.5301230996        5.5703542391        0.4130108321
 O         -3.5693274159       -2.9771061850       -6.2436197897
 H         -3.5446213742       -2.7150460695       -5.2995873057
 H         -2.6885313042       -3.3585845397       -6.4251379416
 O          4.4477016024       -5.7223208725        2.9268857677
 H          4.1311610888       -5.6182440098        2.0114012252
 H          3.7751396139       -6.2866197823        3.3364616143
 O         -1.5671659722        2.0264392382       -7.3126829622
 H         -2.1973737091        2.5112286892       -6.7529451806
 H         -2.0295104540        1.2456320504       -7.6408877404
 O          1.8553012360       -5.5042333345       -6.0390129969
 H          1.1319239963       -6.1368669549       -6.1030202909
 H          1.8033160057       -4.9126671599       -6.8229865490
 O         -0.1289789658       -6.7542388447       -2.8041836612
 H         -0.0918031576       -7.0121553178       -3.7333851830
 H         -0.6407102001       -5.9098306100       -2.8255234099
 O          0.1360510466        0.5997471752       -5.7422942780
 H         -0.4954302626        1.1429945402       -6.2486446138
 H          0.3156927351        1.0788934019       -4.8960940931
 O         -3.4712025835        0.2640372052        1.8792735552
 H         -3.9516774374       -0.5386730363        1.6103559315
 H         -3.7989414882        0.5047685230        2.7672584906
 O          1.9019156947       -3.6142954145       -7.9343358896
 H          1.3043469708       -2.8527091612       -7.8896191488
 H          2.7790393327       -3.2556399770       -7.7236068029
 O         -0.8550488665        5.2057625213        5.9036014054
 H         -1.1664775754        5.9633903067        5.3886829230
 H          0.1081121629        5.2864083464        5.9268600862
 O         -5.7902564462       -6.7975306696       -1.1164201529
 H         -6.1953436937       -7.6007466125       -1.4389071532
 H         -5.5909710050       -6.2294389929       -1.9091148440
 O          3.9732458626       -2.3858720366       -3.2561360840
 H          4.6313150823       -1.7616474120       -3.5959894495
 H          4.0053289325       -3.1679623216       -3.8276152744
 O          6.5754174510        1.8140952002       -3.3734051638
 H          6.0296988214        2.3952339034       -3.9570091411
 H          7.4885926838        2.0297077656       -3.5552453235
 O          5.0256126609       -0.6080955696        0.1160473130
 H          5.0405957440       -0.5268801832        1.0945776801
 H          4.2185110739       -1.1033244451       -0.0743330337
 O         -6.6636437200        2.2887388202        2.5067367985
 H         -5.9457698427        2.3688620241        1.8401954092
 H         -7.3716650976        2.8624317875        2.2097200550
 O          4.6018151200        0.5953096349       -6.4507275125
 H          4.9657813029        1.4843041989       -6.4551468332
 H          3.7398720185        0.6491499694       -6.9314653563
 O         -3.0491796973        6.2842983881       -2.9583749825
 H         -3.6960853716        6.4098359633       -2.2336398932
 H         -2.2282048369        6.6821298868       -2.6030045515
 O         -3.1794167567       -1.3866700589        4.1866365951
 H         -2.8760814211       -1.5979649277        5.0775144625
 H         -4.1460775066       -1.5371298765        4.1831621649
 O          1.9763301549        4.9984629712        5.6787109805
 H          2.2383457750        5.4227611920        4.8342246268
 H          2.7705360754        4.5511349129        5.9958199586
 O         -2.3767636135       -0.6229442940       -7.0634732294
 H         -2.4872020445       -0.2139779704       -6.1817212291
 H         -2.9286633459       -1.4213593905       -7.0301899014
 O         -6.7226528234       -0.4080085682        2.2408787490
 H         -6.3989142187       -0.8670266751        3.0310002193
 H         -6.8523591978        0.5222918170        2.4917873962
 O          7.7383491889        3.4424043721        0.2546480925
 H          7.6378863185        2.5501308208        0.6540589225
 H          8.6675557760        3.5477414654        0.0565244462
 O         -5.7876948860       -1.9842608434        4.3008444038
 H         -5.9831305775       -2.7642107659        3.7577077430
 H         -5.6327657282       -2.3482658994        5.2053789697
 O         -3.1804025468        3.8809367047        4.7601993211
 H         -3.4917210508        4.5331229163        4.1056985114
 H         -2.3186014279        4.2026557802        5.0577129895
 O          5.2091955711        3.4064403957       -4.9924479896
 H          4.2566386951        3.2517360970       -5.1602946443
 H          5.2476392723        4.2575628773       -4.5423112953
 O          3.2501217443       -4.3344679744        6.6989013008
 H          2.9790713601       -3.5609203609        7.2178301830
 H          2.4610060826       -4.6058503970        6.1940366983
 O         -4.2756230538        6.3904792541       -0.5766405360
 H         -3.6678553751        5.6993074922       -0.2156947153
 H         -3.8514358817        7.2242563741       -0.2995728458
 O         -3.7886839253        0.3052532042        6.4891556773
 H         -4.4158330082        0.2874336985        5.7556525186
 H         -3.8899199222        1.1926956063        6.8962993626
 O          0.4636028708        3.0668367788        4.4412283900
 H          0.0506854376        3.6144621465        3.7539552427
 H          1.0571186487        3.6609116124        4.9220142989
 O          6.5269696715        2.2263315419        3.5694778848
 H          7.0783398536        1.7160427858        2.9579766974
 H          6.3507578532        1.6544923811        4.3470981308
 O          5.9966422198        0.5907467124        5.6262799078
 H          5.0830640677        0.3587685980        5.8872023613
 H          6.4004067551       -0.2419365889        5.3534274047
 O          6.6762582797       -1.8021406276        4.2361650983
 H          6.0280761444       -2.5044731181        4.4562989302
 H          7.3580334655       -2.2168331910        3.7053928713
 O          3.4733348107       -0.1234381610        6.2829274773
 H          2.8287409015        0.5832625071        6.4754353448
 H          3.2612025574       -0.8337571128        6.9259766721
 O          2.8848267785        5.6849525326        3.2542885841
 H          2.5614114912        4.8388920838        2.8437662217
 H          3.8326032610        5.5425041601        3.3891450998
 O          2.5521274631        5.5005854678       -4.3657375383
 H          2.5491368399        4.5960294025       -4.7459386448
 H          3.4023552339        5.5399643737       -3.8863855116
 O         -0.3384227092       -1.9984036179       -2.1152739812
 H         -0.5565749246       -2.2250376978       -3.0303399978
 H         -1.1113058364       -2.1547141511       -1.5437224356
 O         -6.2628047072        0.7993814636       -0.2811205896
 H         -6.4069871519        0.2502584728        0.4998394409
 H         -6.7451404769        0.4019320731       -1.0190602833
 O         -8.1510471382       -1.7709773764        0.4152020684
 H         -8.3169253377       -2.6796987235        0.6754373978
 H         -7.7763484797       -1.3126916371        1.1925725085
 O          3.1488249494        4.3311203873       -0.2277537366
 H          4.0222139746        3.9313801108       -0.3941011959
 H          2.8352867227        3.9846973661        0.6383469043
 O         -0.7478842847       -6.4135274582       -5.5603168167
 H         -1.6631433709       -6.6876435221       -5.4464278174
 H         -0.8221547682       -5.4836404803       -5.8492529705
 O          0.9433206170        3.2488778387       -7.5364141306
 H          0.8723805082        4.2161722113       -7.3744911817
 H          0.0329085657        2.9215079156       -7.5619116198
 O          4.2697600732        1.0262152107       -1.9274013359
 H          4.9140761609        0.4135937689       -1.5610215377
 H          3.5999705600        1.1166149578       -1.1973479074
 O          5.8845355111       -0.6490490191       -4.1201218898
 H          5.6791417419       -0.5063899569       -5.0494305166
 H          6.1065580374        0.2385220955       -3.7637533248
 O         -6.8307363571       -3.1694355576       -3.3637816058
 H         -6.6207302025       -2.7057134090       -4.2002642198
 H         -6.4785563963       -2.6410118776       -2.6297342483
 O          1.7875413074        1.8416385432        7.0847267114
 H          2.3488392669        2.6029977548        6.9082041153
 H          0.8573619052        2.1237367705        6.9449571081
 O         -4.1736223470       -0.3393347327       -2.0238505806
 H         -4.9883519165       -0.7317856690       -1.6687678257
 H         -4.2406514696        0.6337035372       -1.9191981059
 O          0.4107068962       -1.0585593673        6.1475364609
 H          0.1302875102       -1.7074589969        5.4743705910
 H         -0.3588267168       -0.7682239137        6.6761663007
 O          4.9698124385       -0.3083318605        2.7717829507
 H          5.7431053322       -0.7026876717        3.2119477270
 H          4.2141785440       -0.8417106755        3.1103619466
 O          2.2972337912       -1.9775861811        7.7733881454
 H          2.0555902335       -1.4389061125        8.5492119972
 H          1.5701888341       -1.7846562598        7.1380420479
 O         -7.2141788721       -0.0581715781       -2.7408764110
 H         -7.7460680264       -0.8046122710       -3.0211605518
 H         -6.4981410186        0.0547957578       -3.3983646060
 O         -5.9371657015       -2.1250822542       -0.9864400859
 H         -5.3008432564       -2.1713054355       -0.2429686055
 H         -6.7975465746       -1.8827136405       -0.5761729650
 O         -1.3961918749       -0.0112438563        7.8410134442
 H         -1.2244956539        0.9304165049        7.7022898681
 H         -2.2924221672       -0.1598264674        7.5024351438
 O          2.0298782834       -7.1827266738       -1.1964989824
 H          2.7833756106       -7.1705760889       -1.7972246539
 H          1.2531380191       -6.9717582773       -1.7536197581
 O         -4.9046315040       -3.1968717817        6.4649533306
 H         -4.0421503144       -2.7962918625        6.6501301695
 H         -4.7016417211       -4.0926186564        6.1319111794
 O         -5.9714154171       -4.0148801240        2.4843803269
 H         -5.2390760367       -4.6497710247        2.6036155405
 H         -6.4479252798       -4.2919988151        1.6745341800
 O         -4.5623797796        1.4669208779        4.1028264152
 H         -5.3985528311        1.7942969665        3.7515908630
 H         -4.0303496136        2.2532408732        4.2986605712
 O          1.8490448556        7.0618033034        1.1985220447
 H          2.2382207663        6.6562172944        2.0003472289
 H          2.5813481022        7.2162260053        0.5813537948
 O          1.1799429367        0.0334641570        9.1716214745
 H          1.4679212834        0.7285973029        8.5602421732
 H          0.2422143489       -0.0934819776        8.9863379302
 O          3.6014345893        1.7847011248        3.8550302693
 H          4.2160283536        1.1128270724        3.5090072456
 H          2.7684074725        1.2950054786        4.0684164573
 O          3.9790349814       -5.6799322571       -2.5178035898
 H          4.6752436597       -5.2706507858       -1.9807987827
 H          4.1491769537       -5.3926960625       -3.4248876290
 O         -0.8090936440        2.5652329884        6.8591537012
 H         -0.7881669833        3.5050107197        6.6291976234
 H         -1.0271456807        2.1033984883        6.0124424882
 O         -0.7934744042       -5.7578577250        1.7875254571
 H         -0.9448970405       -5.3615977615        0.9046046769
 H         -1.6503595616       -5.8573685237        2.2166604278
 O         -4.1807948032        2.3049556770       -1.8136441377
 H         -3.2861431983        2.6861840360       -1.7544289918
 H         -4.6290873081        2.7706626772       -2.5388472275
 O         -3.3811321917       -5.5372163217       -4.9481859843
 H         -3.6521251570       -4.8775261478       -5.5989971472
 H         -4.0862858472       -5.5296239116       -4.2681896151
 O         -3.9265149084       -5.4894288758        5.3389319883
 H         -4.1317650457       -5.6748404213        4.4164049148
 H         -2.9895662804       -5.2377260983        5.3255514173
 O         -1.5028189896        5.2691732449       -5.0118828382
 H         -2.0968520667        5.8526194019       -4.5223453441
 H         -0.8355547916        4.9533749077       -4.3499129498
 O          5.4222152531        4.6723367545        3.9577228266
 H          4.9826983072        4.4535186704        4.7941192923
 H          5.9309199629        3.8625421980        3.7681490672
 O         -2.3837782994       -1.5277962711       -0.4394883883
 H         -1.7792711006       -0.9163668563        0.0043256958
 H         -3.0264666135       -0.9794714722       -0.9348673017
 O         -1.4433491367       -7.8736411658       -0.6614136744
 H         -0.9814375807       -7.5572991203       -1.4582414510
 H         -0.7665080031       -8.1503372811       -0.0345966608
 O          4.1879202135       -4.4949570770       -5.0241031666
 H          3.4249312236       -4.9781190157       -5.3783981839
 H          4.4085644457       -3.8421117774       -5.7069988729
 O         -3.3782860974       -6.1585740764       -0.0002049437
 H         -4.2137105440       -6.5323297382       -0.3263702715
 H         -2.6724973849       -6.8014660751       -0.2315862110
 O         -6.9542294638       -4.5677866046        0.0671813746
 H         -6.6450254542       -5.4204913813       -0.2721497586
 H         -6.5873577853       -3.8884674513       -0.5212856624
 O         -7.5811465515        3.1805416750       -0.3242600480
 H         -7.0572040409        2.3588890057       -0.2213174257
 H         -7.0874994676        3.8977222061        0.1022476248
