  461
       -778.77066069
 H         -1.3693289572        1.0775082899       -1.2497202506
 C         -1.3221078612        1.1083993041       -0.1597206557
 H         -0.5917219259        1.8497366734        0.1520077093
 C         -0.9255369564       -0.2778081146        0.3403389100
 H         -1.0254878439       -0.3374409773        1.4226214358
 H          0.1115369226       -0.4597934509        0.0655718798
 N         -1.7588911901       -1.3190423240       -0.2439886220
 H         -2.7025614156       -1.2026829336        0.1078836275
 H         -1.7913652975       -1.1989623250       -1.2531575895
 O         -2.5810913538        1.5503250192        0.3369333285
 H         -3.2346465240        0.8246098074        0.2416275150
 O          1.5573444752        1.5173061365       -4.9872322934
 H          1.4380486791        2.2882215632       -4.4027814624
 H          2.1968001856        1.7780294422       -5.6580085092
 O         -1.4835308747       -5.9408973197       -1.1100157021
 H         -0.9475294642       -5.9574206963       -1.9095128642
 H         -2.4071302183       -5.9897612208       -1.4180622600
 O         -0.2140792561        3.9827740643       -0.8505568770
 H          0.7595684455        3.9225718639       -0.7424270551
 H         -0.4310109164        3.6588557906       -1.7496378322
 O          0.6110858107       -1.6396482771       -3.6690402889
 H          1.4590467027       -2.0780761160       -3.4701122111
 H          0.6553185445       -1.4460381135       -4.6181487113
 O         -1.9221315454        4.2097520668        1.2261598299
 H         -1.3730200591        4.0427708334        0.4380409744
 H         -1.3028438461        4.2640892867        1.9814517535
 O         -0.9886503717       -3.6828815193        0.5790332814
 H         -1.2743052616       -2.7997326636        0.1912245881
 H         -1.2103364304       -4.3773705294       -0.0545548828
 O         -6.6403740844       -4.4771565106       -1.4538471261
 H         -6.4958615279       -4.1856884088       -2.3696116898
 H         -7.5570903400       -4.1935776412       -1.2781793530
 O          0.9289579410       -5.9096209404        0.4823581710
 H          0.7392979156       -5.8278797079        1.4382439607
 H          0.1429493085       -6.2868004614        0.0799892252
 O          2.8524489989       -3.0211837202       -3.1025258397
 H          2.3806870376       -3.5434997546       -2.4184015007
 H          3.6823065971       -2.7266255019       -2.6904990678
 O          6.9482883349        1.9405961171        2.0148070352
 H          7.5892809793        1.2974515869        1.6593057404
 H          7.2846356536        2.2028830654        2.8913110244
 O          0.3805604092        0.8335636383       -2.6633295125
 H          0.8413523714        0.9492889642       -1.8166714748
 H          0.3783292383       -0.1090894652       -2.9012104757
 O          2.2474773717       -6.0453042531       -2.9882400241
 H          2.7520969890       -5.7841018152       -3.7733701240
 H          1.3165927828       -5.9025903602       -3.2118840312
 O         -0.8427701182        0.3356164047       -5.3077699914
 H         -1.4067079631        1.0330895592       -5.6958356376
 H          0.0197663788        0.7555603827       -5.1339258502
 O          1.7589384910        1.4388522636       -0.4317051037
 H          2.5094244962        1.7903213701       -0.9287336235
 H          2.0943325523        0.7349596749        0.1592865959
 O          5.2377656476        0.0123702723        2.5047549642
 H          5.7258721360        0.8311209605        2.2581910531
 H          5.5779891200       -0.6833537286        1.9058084885
 O         -8.5424467781       -3.6283843978        4.0296705649
 H         -8.7235775667       -2.7601996710        4.4117773923
 H         -9.0533562451       -3.6711897185        3.2094054082
 O         -4.0728024622       -5.7383006348       -1.9246392511
 H         -4.9912232759       -5.9608693657       -1.7640812172
 H         -4.0046260095       -4.7554835139       -1.7868832082
 O         -1.0425478589       -3.2819268593       -2.3659596199
 H         -0.7120601559       -2.5108605135       -2.8605327666
 H         -0.8832694989       -4.0493483234       -2.9572607184
 O         -5.8296807148       -2.5862557965        0.3468330498
 H         -6.0941111250       -3.1943369695       -0.3640831738
 H         -6.6243874554       -2.1381631235        0.6733737725
 O          8.4148666199       -3.6798013712        1.6868869642
 H          8.6735050852       -3.4834386784        0.7641620647
 H          7.8763535497       -4.4761589626        1.6899108289
 O         -3.5701120785       -3.2220339254       -1.4337593463
 H         -2.6643601235       -3.1764243799       -1.7979184335
 H         -3.4888077679       -3.2595947061       -0.4577016156
 O          5.6837929565        0.6558705538       -2.9665950613
 H          5.9072881641       -0.0738872404       -3.5638303685
 H          6.5043798097        1.1187990468       -2.7666396198
 O         -4.6044961521        1.1182362550        3.9508024785
 H         -5.1552970405        0.9363722717        3.1585949710
 H         -3.7147075834        1.3149020494        3.5969341498
 O          8.3888456705       -0.1458514357        0.9739690997
 H          8.8514556862       -0.3693214703        1.8083929341
 H          7.6566193260       -0.7853890176        0.9081839118
 O          3.9455454851        1.9922090922       -6.4999198268
 H          4.8705334037        2.2482363040       -6.4524028877
 H          3.9374690685        1.0364596577       -6.2823274017
 O          4.5480164410        2.4644429228        0.7194694096
 H          4.5733578113        1.5255282725        0.4118564427
 H          4.3434186887        2.4435533183        1.6614300829
 O         -0.0390039285        4.5761186598        3.1230844732
 H          0.5126656942        3.9755087931        2.5786144462
 H          0.2370668589        5.4800551381        2.8284209534
 O          3.2297769996       -5.2300907046        2.1904997623
 H          2.5584647385       -4.5418510279        2.0090248258
 H          3.0373770254       -5.5549519044        3.0710577685
 O         -7.3075185759        0.5736156037        6.0694208426
 H         -7.1617895420        1.4553414107        5.7138741585
 H         -7.9517426316        0.1320504601        5.4838502568
 O          4.0104379198        5.6716894696       -2.1896682708
 H          4.3475556841        5.1433498229       -2.9240818199
 H          4.6538227408        5.5795815982       -1.4643188394
 O         -5.5159584709       -2.0291205721        3.5078714934
 H         -5.4448241784       -1.7042547619        4.4269424287
 H         -5.5960062622       -3.0061599737        3.5437832156
 O         -3.9054505837        0.0678485249       -6.2319888841
 H         -3.4676640050        0.7595724124       -6.7364758410
 H         -3.9516907023        0.4228629960       -5.3252096349
 O         -4.6036033385       -0.1870508207        0.0398797968
 H         -4.9426294443       -1.1044592203        0.0476018144
 H         -5.1139963906        0.2607028180        0.7421586362
 O          3.8184559716        2.4439605962       -1.9794816222
 H          4.1150139049        2.8181813775       -1.1406587741
 H          4.3968033909        2.8156925606       -2.6810929063
 O         -8.8587495715       -2.9777515611       -1.1990058542
 H         -9.3505557526       -2.8189831412       -2.0057423279
 H         -8.3645431924       -2.1361622141       -1.0337196502
 O         -3.4725745107       -4.5271875788        4.4567743172
 H         -4.3907053280       -4.6534284295        4.1692274514
 H         -3.0477458070       -5.4130168527        4.3969146272
 O          6.4913579116       -1.1574343501       -4.9804898110
 H          6.2845449742       -2.1099730263       -4.8451173146
 H          7.4478095978       -1.1075624395       -4.8052995524
 O         -1.2918376684        5.8914933852       -3.9780221199
 H         -1.8212648216        6.0880148809       -3.1858554015
 H         -0.3770664856        6.0534678598       -3.7093352562
 O         -7.0528520127        6.2526237129        1.6642335360
 H         -6.5820221451        5.9605468671        2.4498157835
 H         -7.6698760175        5.5422925683        1.4210459246
 O         -0.3348688135       -5.3563564406       -3.8534133818
 H          0.0101840618       -4.8843236711       -4.6366737266
 H         -1.2491539306       -5.6332877062       -4.1223495925
 O         -4.4064636353        3.1794526277        1.9153473290
 H         -3.5132925534        3.3607138991        1.5859220383
 H         -4.6082306460        3.8951745169        2.5429841487
 O          3.4833543041        2.3411883010        3.4239114383
 H          2.8685840652        2.8337572831        4.0124314371
 H          3.3558158428        1.3989480334        3.6634086410
 O          1.4547783625        2.9051100503        1.7135884830
 H          1.5227891102        2.4810098093        0.8270825092
 H          2.3470161594        2.8847014335        2.0938529865
 O          3.4574396888       -5.3665244157       -0.6787002794
 H          3.0162028451       -5.6460305713       -1.5063185323
 H          2.9691355761       -5.7854522474        0.0414395073
 O         -2.1726254587       -6.7513884446        3.8053831216
 H         -2.5602457311       -6.7094985749        2.9130781631
 H         -1.2338239262       -6.5405188336        3.6871846747
 O          1.7414965780        3.6523199474        5.0245715730
 H          1.0289217619        4.0222359822        4.4729461564
 H          1.3280329052        2.9836554829        5.5981391979
 O          7.3892024703       -0.9436424400       -1.6461358330
 H          7.9148493253       -1.5945028498       -1.1330340374
 H          7.2904401183       -0.1363439563       -1.1218412559
 O          0.7346322651       -1.3017288629        3.3947132781
 H         -0.1556692214       -1.3413802847        3.7778005249
 H          0.8624995932       -2.1142945630        2.8664263875
 O         10.0404019636        2.0631273904        2.9732598908
 H         10.0195863662        1.1026228969        3.1100770318
 H          9.4079493714        2.4077460555        3.6201372578
 O         -3.1802136887        6.4816068763        1.4666538867
 H         -2.5207581564        7.1751513037        1.4787938009
 H         -2.6893647056        5.6296798931        1.3160512040
 O          4.7952019550        0.1012231503       -0.4077819164
 H          5.0772146339        0.2806446327       -1.3219799166
 H          3.9388012011       -0.3372411226       -0.4538050600
 O          7.0885560931        1.9283193471       -0.7321722227
 H          6.3795396543        2.0277033326       -0.0819612737
 H          7.9102036508        2.1132619267       -0.2395110749
 O          0.3668174310       -3.8950983410       -6.0430701820
 H         -0.4884352562       -3.7217534468       -6.4474082271
 H          0.8306007888       -3.0431534886       -6.1041673232
 O          7.4113778629        4.0568617401       -2.2599791331
 H          7.1807433026        3.3036169644       -1.6605550504
 H          7.7151168886        4.7586472450       -1.6753787493
 O          2.4944193913        4.3339886565       -5.8566848539
 H          3.0604550694        3.6532828419       -6.2415500369
 H          2.5121948106        4.1884780425       -4.8945820590
 O         -2.9873199975       -2.8875829962       -4.5326848747
 H         -2.4605818158       -2.6342579279       -5.3182137050
 H         -2.8210802367       -2.1670443806       -3.8874054560
 O         -6.7327311883        2.9584489732       -4.3198823508
 H         -6.2208968280        3.5257488553       -3.7091382534
 H         -6.3506536095        3.0876650430       -5.1882232860
 O         -7.9404734299        2.5076001092        2.9664612401
 H         -7.3739602078        2.8670862019        3.6816468661
 H         -8.0936577546        3.2011012882        2.2932210282
 O         -2.2164659136        1.7871428098        2.9899021421
 H         -1.2933476341        1.5154684318        3.1790861639
 H         -2.3598596280        1.7000357861        2.0275364274
 O          5.9218592219       -3.6711451233       -4.3147070687
 H          5.5888438790       -3.3262066105       -3.4524166019
 H          5.1796938486       -4.1313872555       -4.7301261840
 O         -4.9964708270       -0.7363149449        5.8036150341
 H         -4.7156223877       -0.0558581213        5.1527103618
 H         -5.8587060941       -0.3964472221        6.1170282933
 O          8.5765392075        1.7862269789       -3.2637641943
 H          8.3768600546        2.7154446746       -3.0749046810
 H          9.0334826166        1.4593863478       -2.4640629741
 O         -1.0697408686        2.9492438609       -3.1955334219
 H         -0.7389733428        3.3256329723       -4.0267128350
 H         -0.5846938841        2.1049639342       -3.0770330615
 O          5.8509076075       -4.5925850531        2.2104326211
 H          5.9780758145       -4.1690866310        3.0700935703
 H          4.9086339153       -4.8620417223        2.1846729603
 O         -5.2403310561        6.1978058691       -0.3040967860
 H         -6.0095593247        6.4063225456        0.2646649194
 H         -4.4829249151        6.3221492506        0.3004073620
 O          0.3159347671        1.2861966523        3.4349792836
 H          0.5761376591        0.3535734742        3.3227069614
 H          0.7838725728        1.8196870203        2.7570047289
 O          0.3502394590        1.5204299228        6.0775923912
 H         -0.5762681827        1.5804057837        6.3426491802
 H          0.3237265445        1.3917790704        5.1021039442
 O         -0.1669476239        3.9587364626       -5.6849899259
 H          0.7856447661        4.1041457771       -5.8661564027
 H         -0.5257501710        4.8201609513       -5.4474684146
 O          1.4269916253       -1.3849302878       -6.2588412800
 H          2.3610713439       -1.1335124166       -6.1212402762
 H          1.0116512575       -0.6820554429       -6.7596353663
 O          1.2530148590        6.2381345932       -2.7592803786
 H          2.1924180714        6.4390061706       -2.6866411020
 H          0.8317959068        6.5149719964       -1.9208301503
 O          1.7517657082        3.6222249490       -3.3209041061
 H          1.4861722429        4.5182119461       -3.0516267585
 H          2.3842874195        3.2833527644       -2.6666451269
 O         -3.1421077905        3.4878149346       -1.5350514198
 H         -3.0187125627        2.8755300218       -0.7864462833
 H         -2.4803241631        3.2331763458       -2.2063358311
 O          3.3572470810       -4.6170198704       -5.1370675789
 H          2.6633509971       -4.5878372044       -5.7990584609
 H          3.1127485364       -3.9428909974       -4.4613240958
 O          5.2772031921        3.6594085114       -3.8221935234
 H          5.5711558591        3.0117830683       -4.4814018399
 H          6.0862385310        3.9254896887       -3.3455118118
 O          2.3742648727        4.2965540850       -0.4864448423
 H          2.5688326791        4.6207961490        0.4049569582
 H          2.8575558608        4.8722318422       -1.1005524614
 O         -0.2554067477        6.5847418708       -0.5360721323
 H         -0.2322602502        5.5951307671       -0.5836200138
 H         -1.1442495548        6.7937385165       -0.8575265808
 O          7.8874383626       -4.6333453945       -2.5021588207
 H          7.3838172109       -4.3561097633       -3.2821450464
 H          7.2256919518       -4.9110554021       -1.8470463678
 O         -6.0420577605       -4.6086502057        3.5020698376
 H         -6.9645939999       -4.4567150978        3.7754932839
 H         -6.0690871353       -5.0499841947        2.6293476188
 O        -10.0744816552        0.3810029843       -1.5836653210
 H         -9.8976022292       -0.3260335462       -2.2216596507
 H         -9.3767261927        1.0461205432       -1.7667497491
 O          3.7660868323       -2.6393647251        6.3658812503
 H          3.3082566339       -3.3944288376        5.9629285777
 H          3.0624844732       -1.9898988796        6.5088972729
 O         -3.0881076260       -6.0655966884        1.3077365066
 H         -2.4754482553       -6.2388716370        0.5887632367
 H         -3.1495913567       -5.0895724458        1.3866832598
 O        -10.8086099447       -0.8774131415        0.8888416876
 H        -10.5097741257       -0.5199979758        0.0407556151
 H        -10.6102405265       -0.1994307092        1.5588359591
 O         -8.9940747236       -0.7022440789        4.3067932813
 H         -8.5029846682       -0.8177671241        3.4654989282
 H         -9.7652987126       -0.1775754612        4.0752573075
 O          3.1422738829       -0.1075767983        4.4614260620
 H          2.4010401433       -0.3839145650        5.0435220484
 H          3.3620969048       -0.9076461731        3.9399623884
 O         10.1918938542       -3.0947369962        3.6195615967
 H         11.0368208894       -3.4227113805        3.3130672289
 H          9.5203702932       -3.3906215528        2.9716820921
 O         -3.5601963814       -3.4445884227        1.2732868998
 H         -4.5276156901       -3.3781088834        1.2140154079
 H         -3.2932402981       -2.5954667995        1.6997316300
 O          6.6295573649        1.7705662683       -5.4318393201
 H          6.4558917056        0.8220165779       -5.4748261150
 H          7.4143218388        1.8640925759       -4.8779040426
 O          1.3493975284       -3.2459356344        1.7030659052
 H          0.5078879084       -3.5078127403        1.2644113573
 H          1.8159717043       -2.6872336398        1.0753757089
 O          6.3617083399       -1.9272183842        1.0521652019
 H          6.8546074341       -2.6332950638        1.4975446006
 H          5.5255656142       -2.3188230277        0.7270068683
 O          3.9157147174       -2.8794211972        0.4752631347
 H          3.7297762744       -3.7616689979        0.1072722198
 H          3.4587769455       -2.2322115287       -0.0933963006
 O         -6.8626342941       -3.1429108071       -3.8187978921
 H         -6.3933027485       -2.9304092581       -4.6599971918
 H         -7.6832194123       -2.6312935421       -3.8168797826
 O         -7.4065388122       -0.7859851560       -0.8739715374
 H         -6.6230236136       -0.9040647064       -1.4529072746
 H         -7.7524701243        0.0958751398       -1.0116768219
 O          3.6201600535       -2.3957528977        3.1607244692
 H          4.4689535304       -2.6398749436        3.5767530472
 H          3.7151797491       -2.5665728374        2.2074604528
 O         -5.2225279397        4.6178210822       -2.7951855293
 H         -5.5569763225        5.3055035108       -2.2128276762
 H         -4.5853410346        4.0978177589       -2.2585093128
 O         -3.2468609254       -1.0860398704        2.3912427739
 H         -2.6430228753       -0.9475334998        3.1445737106
 H         -4.1234086133       -1.2545975953        2.7802995043
 O         -5.8600378719       -5.7323150240        1.0539437176
 H         -4.9315236990       -6.0145373594        1.0448357261
 H         -6.0632763508       -5.3422721241        0.1965093872
 O          0.2733798278       -5.5631368743        3.1361313135
 H          0.9924261391       -5.2852685593        3.7253801764
 H         -0.3265988558       -4.7853987461        3.1176179469
 O          8.9099349361       -0.8590334092       -3.8201976427
 H          8.3247828935       -0.9213866031       -3.0217568684
 H          9.0525788489        0.0895516246       -3.9314216901
 O          3.8943279662       -0.5574498726       -5.6274538254
 H          3.6323376641       -0.4072863844       -4.6835765195
 H          4.7904093702       -0.9101585378       -5.6024249936
 O          5.4159539905        4.9721236395        0.0777426232
 H          5.1785523553        4.0679601408        0.3530343736
 H          6.3746752780        5.0553555816        0.1953380214
 O          3.2807896494        5.4994354238        1.8223102507
 H          3.5287214606        5.4175836468        2.7658956648
 H          4.1090748747        5.6047835921        1.3336207571
 O          7.7913947716        2.2351625770        4.5495385313
 H          6.9829702513        2.6625540642        4.9049992295
 H          7.6668523875        1.2881623203        4.7249551392
 O         -1.3695192111       -3.4322490036        3.2230448721
 H         -2.2302640234       -3.7527877420        3.5609279153
 H         -1.4301718705       -3.4224002149        2.2500831997
 O          5.3372874919        2.9081376335        5.2882166737
 H          4.7861485385        2.6752029824        4.5096036952
 H          5.1684387163        2.2068142699        5.9312190338
 O          3.0137802865        0.0578615059       -3.2217647872
 H          2.2661784285        0.5351156267       -3.6385217465
 H          3.6176199624        0.7423530607       -2.8950495438
 O         -6.1154578230        3.1523869328        4.7840524823
 H         -5.6798036822        3.9875343767        4.5909566841
 H         -5.4852698134        2.4415930082        4.5151401766
 O         -0.1857786078       -3.0317274829        5.6342728197
 H         -0.9271554682       -3.0463436030        6.2475088222
 H         -0.5914136952       -3.1127593261        4.7505963065
 O          6.8047333822       -0.4060202411        4.5915147415
 H          6.1993708479       -0.2541815436        3.8183436863
 H          6.2518271581       -0.1597010982        5.3636889007
 O         10.9522906443       -1.7070323845       -2.3357019472
 H         11.6804748381       -2.1223939858       -2.7954391114
 H         10.2703440187       -1.4853232828       -3.0146659654
 O          9.9382896882        0.6404531791       -1.1336722282
 H         10.4829990053       -0.0942750818       -1.4404803674
 H          9.3994807121        0.2884888918       -0.3964324144
 O          1.2536257565       -3.6945538364       -1.1168154468
 H          1.2192856443       -4.4900057673       -0.5527261903
 H          0.3518345176       -3.5678683600       -1.4795038869
 O         -3.3457048514        4.0459948918       -4.6962944640
 H         -2.5764314181        4.6060718516       -4.5137639089
 H         -4.0759408125        4.4347021591       -4.1942392921
 O          6.0112166087       -4.7489204848       -0.5204447972
 H          5.1523719194       -5.1927477692       -0.6670206702
 H          6.0658013993       -4.6619947194        0.4450987471
 O          4.9286816705        0.3153223940        6.3313112552
 H          4.2364659204        0.1707677060        5.6285245660
 H          4.7279089766       -0.3172814768        7.0219250041
 O         -4.5662688429        5.3051600948        3.5744969115
 H         -3.7928494723        4.9322974950        4.0490466133
 H         -4.1902327267        5.9281684518        2.9314369036
 O          2.6331241438       -0.0976373038        1.5620412860
 H          3.5363276895       -0.0617605875        1.9195557572
 H          2.0923237000       -0.5518705673        2.2159224693
 O          2.3370622736       -1.2375617914       -0.9548309482
 H          1.7762718588       -2.0211262562       -1.0810771466
 H          2.5024555143       -0.8561910734       -1.8405338332
 O         -2.4194742590        1.6076739362        6.0382944335
 H         -2.5123255936        2.4769988154        5.6095839032
 H         -3.2890855503        1.3554981954        6.3546335858
 O         -8.1010444571        2.1077249587       -2.0022882020
 H         -7.1587233274        1.8438520485       -1.9144026228
 H         -8.1362518453        2.5789694440       -2.8378200306
 O          8.1685710301        5.1429690275        0.2061260137
 H          8.5556988351        5.7701595326        0.8155709425
 H          8.6271779407        4.2887755971        0.3564812714
 O          9.3835105407        2.7712303647        0.5056718368
 H          9.9814419170        2.2831911653       -0.0721774494
 H          9.6353292351        2.5326005707        1.4310260944
 O          2.1364473354       -4.1562685237        4.6666488486
 H          1.3658974718       -3.7580307021        5.1010885597
 H          2.4896122305       -3.4773707993        4.0554718031
 O        -10.2904451153        1.2238204698        2.5888921026
 H        -10.6129760174        1.8083917591        1.8900671564
 H         -9.4245416950        1.5982998784        2.8346447627
 O         -2.4280939633        3.9239118532        4.4711255824
 H         -1.5790688993        4.3516739943        4.3094999160
 H         -2.4437249458        3.1755767762        3.8199521247
 O         -2.1737671477        2.3572103625       -6.5330359039
 H         -2.7816698967        2.8765384856       -5.9861315776
 H         -1.3581706476        2.8862260258       -6.5152303459
 O         -5.3182939460       -1.3984538931       -2.4786918291
 H         -4.5817635538       -1.8929753816       -2.0790736897
 H         -5.8208714431       -2.0761852739       -2.9733174190
 O         -7.6456348633       -1.4313823366        2.0928042589
 H         -6.9230923394       -1.7839829872        2.6619235069
 H         -8.2949401732       -2.1456403827        1.9010659667
 O         -3.8323122157        1.3966117852       -3.8187876643
 H         -3.5113312374        2.2837416999       -4.0363015656
 H         -4.4877029773        1.4973140447       -3.0973725040
 O         -2.2192234067       -0.6900438003       -3.1686240246
 H         -2.9344947297       -0.0359603869       -3.2268867828
 H         -1.5835160632       -0.3867398164       -3.8420540253
 O         -6.2495938102        0.8182624515        1.8440202868
 H         -6.8010104322        0.0189039265        1.8250428231
 H         -6.8504772776        1.5206884726        2.1687766383
 O         -1.7086186416       -0.7107285589        4.5798555107
 H         -2.0983241555       -1.3861181483        5.1764813543
 H         -1.9070235629        0.1443213905        4.9897431335
 O         -5.9018586780        3.5621484328       -0.1381364333
 H         -5.4028846805        3.2769188268        0.6712696072
 H         -5.6451379800        4.4937584118       -0.2671287443
 O         -8.9988574161       -1.2529189382       -3.6326782194
 H         -8.2105228680       -0.6598671047       -3.7705323886
 H         -9.4971539361       -1.2074992502       -4.4482404194
 O         -2.7073321949        6.1474710244       -1.6337543183
 H         -3.5861466002        6.5132225466       -1.5074216044
 H         -2.7982470974        5.1806343103       -1.4827824963
 O         -8.3603723468        3.9955680181        0.8036020769
 H         -7.5672203527        3.7045361654        0.2993602764
 H         -9.1241022279        3.5426665113        0.4205736789
 O          5.2736686097       -2.5882517217       -1.9795569724
 H          5.9226545662       -1.8729494347       -1.8387566194
 H          5.5373532930       -3.3136529508       -1.3761713546
 O         -5.5022535023        1.5305767209       -1.7638481476
 H         -5.5026797175        2.3230747541       -1.1867269572
 H         -5.1784220553        0.7920851960       -1.2001379852
 O         -6.8605516306        0.1815839775       -4.1364014088
 H         -6.7968738089        1.1486747067       -4.1568033741
 H         -6.1074631367       -0.1393047736       -3.6180375782
 O         -5.3168845710       -2.3754027617       -5.8026333472
 H         -5.1750899305       -1.4469371747       -6.0221221343
 H         -4.4960148299       -2.6491089779       -5.3427387818
 O          5.8454090424       -2.9675997577        4.5488761456
 H          6.3768280481       -2.1511128149        4.5821498083
 H          5.2893499141       -2.9520705837        5.3456876741
 O         -1.7560424261       -1.8139021892       -6.6364661258
 H         -1.2942066168       -1.0895479370       -6.1672064030
 H         -2.5975517555       -1.4157811899       -6.8944043306
 O         -2.8757128055       -5.6014348630       -4.3775062292
 H         -3.3917863914       -5.8270066646       -3.5860873272
 H         -3.0108877599       -4.6422969312       -4.4960172633
 O          0.8214255106        6.7685037330        1.9853042341
 H          1.7491914065        6.4897160402        1.9045097832
 H          0.4707365171        6.8087024119        1.0784695439
 O        -10.7209241513        2.5334665416        0.1265099798
 H        -11.5352052479        2.9378192085       -0.1717824658
 H        -10.5851971535        1.7437340989       -0.4199119741
 O          3.9270860012        5.2649834921        4.4433682460
 H          4.6363483805        4.7053514537        4.7820979289
 H          3.1162963094        4.9055496388        4.8304460347
 O         -2.9105873873       -2.4951579191        6.1676838982
 H         -3.7099230808       -1.9533183997        6.2623552036
 H         -3.1775749364       -3.2738189830        5.6425559629
 O          8.9817735330       -2.9031797804       -0.8294286708
 H          8.6306353343       -3.5653735881       -1.4744943600
 H          9.8191421058       -2.5879710582       -1.2021073343
 O          9.3256140199       -0.5741770805        3.4202998881
 H          9.7397955672       -1.4455858106        3.5770489264
 H          8.5006857917       -0.5830355647        3.9309931959
 O          1.4729425299       -0.9487314722        6.3321473626
 H          0.8136788696       -1.6084116582        6.0483935413
 H          1.0043369960       -0.1011139821        6.4441692293
 O         -9.5593576475       -3.1445243243        1.4532647935
 H        -10.1736737381       -2.3830504646        1.3409579529
 H         -9.3499500119       -3.4014322829        0.5435372980
