  219
       -371.67297087
 O         -6.8419450982       -0.3739509387        3.1783243142
 H         -6.2506332330        0.3604951358        3.4054488820
 H         -7.2283736806       -0.1418116253        2.3188587930
 O          5.5231849456        1.5440902029       -3.8411830448
 H          6.0716318183        1.4680796160       -4.6215646323
 H          6.1171407828        1.4278951867       -3.0555987872
 O          3.6950806229       -0.4895108822       -3.5227787738
 H          3.5256572974       -0.5482652303       -2.5593843537
 H          4.3402278936        0.2246167658       -3.6473485492
 O         -3.6130548347        4.7660572641        2.0128020061
 H         -3.2896838882        4.8453450546        1.1032002590
 H         -3.1421748556        4.0190928335        2.4047166017
 O         -7.9949528718        0.0517731135        0.6413350118
 H         -8.9375558862       -0.1154291504        0.6611138280
 H         -7.6007232904       -0.6337818271        0.0764431848
 O          6.1537680869        0.7914914592        2.8129250507
 H          6.1361489347        1.6635124539        2.3902002286
 H          5.3303051107        0.3285757324        2.5375917945
 O         -3.1448902435       -4.3153351647        0.5137993864
 H         -2.5902521006       -4.2163691561        1.3057154211
 H         -3.9377059329       -4.7968216030        0.8298913851
 O          1.4167988375       -0.8269857489        0.6252423632
 H          2.1687610367       -1.0233747417        0.0295448889
 H          1.0237953434        0.0073294657        0.3060654039
 O         -6.8484311722        0.5027587397       -2.4770600156
 H         -6.7087409361        1.2409932952       -1.8545962919
 H         -6.9122385771       -0.2930205953       -1.9337072412
 O         -3.1362474002        2.1139336746       -3.4034525434
 H         -2.5004126829        2.1189834290       -4.1325017583
 H         -3.6332762680        1.2683883655       -3.5039508459
 O          0.8440639417        0.3402723036       -2.1983393457
 H          1.0812181834        0.4134477551       -3.1398791269
 H          0.9105831170       -0.6055759663       -1.9892143276
 O         -5.3760144223       -5.0400980383        1.8195151653
 H         -5.3039689904       -4.4338720614        2.5685664591
 H         -6.2354996671       -4.8180189855        1.4210543604
 O          2.3977697023       -3.9711712742       -1.0343108880
 H          2.8323616317       -3.5005674235       -0.2908674325
 H          1.8512703471       -4.6486211538       -0.6010277159
 O         -2.8534835391       -2.1170386674        4.3995980333
 H         -2.3920070601       -2.7561001643        3.8059756954
 H         -2.8108508764       -2.4844620220        5.2825583774
 O         -1.5819114188       -3.8088133143        2.7892809542
 H         -1.0244197479       -4.5615638512        3.0330854848
 H         -1.0523446224       -3.2957990356        2.1337104335
 O         -0.3035063683        4.0488682074        1.0996881529
 H         -0.0713598084        3.1380196891        0.8137175516
 H         -1.1913368313        4.2267348104        0.7652676233
 O          2.3230761318        4.4323173939       -2.5305242501
 H          1.9584395396        5.0313658749       -1.8445839925
 H          1.5540920133        4.1560012429       -3.0686183895
 O          1.1073189627        5.7227861681       -0.5040947292
 H          0.6444600636        5.1251948968        0.1216547181
 H          0.4023189670        6.1090721083       -1.0389572256
 O          0.4299031624       -5.6917621828        3.0967678478
 H          0.6412718254       -6.4411395510        3.6523376688
 H          1.0930399920       -4.9945837475        3.2884338853
 O          2.0743885501       -3.6289740460        3.5065362910
 H          1.5003634416       -2.8298034776        3.4572240174
 H          2.8799796679       -3.3270062528        3.9695819888
 O         -1.2529485712        2.4646594009       -1.5972648796
 H         -1.9244418674        2.0843625419       -2.2081357156
 H         -1.7112591493        3.2015883450       -1.1468985324
 O          3.5921057340       -1.0850576409       -0.9048251958
 H          4.0916926499       -0.3586134717       -0.4939328953
 H          4.2131599369       -1.8437597633       -0.9462823774
 O          1.3900373445        0.0484821008       -4.8382387806
 H          1.1406454393       -0.8877852451       -4.9509036084
 H          2.3277065805        0.0033061260       -4.5788117048
 O          0.4622689389       -5.2779434767        0.3317446627
 H          0.0671846034       -4.3822956200        0.4165884393
 H          0.4434783342       -5.6451854211        1.2255983090
 O         -0.3907223203       -2.7657915252        0.7086128798
 H          0.3463736547       -2.1196798480        0.6728322491
 H         -1.1527761057       -2.2982256541        0.3001102452
 O          3.6940005651       -3.2853041198       -3.4748713826
 H          3.2361953329       -3.5022344571       -2.6488168013
 H          3.7297986510       -2.3155551391       -3.5362141770
 O          2.7697106805        2.6690315551       -0.6536966389
 H          2.8859335228        3.2904670470        0.0971874649
 H          2.6427280289        3.2297317184       -1.4544346597
 O          4.7950114622        1.1426263709       -0.0923444753
 H          5.0850553406        1.7226602220        0.6388493994
 H          4.0318383087        1.6379214007       -0.4715498885
 O          6.6629071262        4.0216511856       -0.8241990533
 H          5.9913830502        4.0840888684       -1.5563140073
 H          7.1830229218        4.8226570343       -0.8786820397
 O          3.3195332072       -2.8816489969        1.2179613475
 H          2.8226126614       -3.2987098457        1.9456941633
 H          4.2633026862       -3.1085974858        1.3507092708
 O          3.8730106741       -0.4738026489        2.3042147963
 H          3.5815287293       -1.1659551321        1.6795193711
 H          3.1926468614        0.2329639317        2.3070182828
 O          5.5343109015        3.1508008674        1.5087814192
 H          6.0158808173        3.5473842038        0.7594206928
 H          4.7127672115        3.6643479477        1.5953250727
 O          0.5257551281       -2.3529736503       -1.9674000936
 H          1.2086168197       -2.9308214567       -1.5596158695
 H         -0.3401505333       -2.7767212473       -1.8234366223
 O         -1.3106291202        0.0672927561        3.7757872748
 H         -0.5568522455       -0.4880864790        3.4764228223
 H         -1.9824797632       -0.5627550962        4.0835119138
 O         -4.7777942030       -2.1723113727        0.7826955220
 H         -4.1311666124       -2.8682752960        0.5551857005
 H         -5.0426002973       -2.3502852492        1.7112501857
 O          5.4904805345       -2.9477199894       -1.2500105019
 H          5.2490325236       -3.2831444063       -2.1236900454
 H          6.2841456061       -2.3769624842       -1.3558654007
 O         -4.6295155611        3.8465469411       -1.8874370115
 H         -4.2243168202        3.2388727298       -2.5318274995
 H         -5.3342849904        3.3578547963       -1.4414481527
 O          2.5456220475       -0.1889922421        5.1126782516
 H          3.1453952771        0.5672703887        4.9058198274
 H          3.1249942448       -0.9245968658        5.3279620941
 O         -1.0319287692        5.9467124725       -2.3666952533
 H         -1.4648068712        6.5305466601       -2.9889294958
 H         -0.6909363936        5.1842788176       -2.8890622406
 O         -5.3885903681       -2.5933540205        3.3397405925
 H         -4.5628884543       -2.3337755212        3.7792637664
 H         -5.9842824936       -1.8130652289        3.4040868087
 O         -2.5341256332        4.5709086447       -0.5297074892
 H         -3.3893386602        4.3479093179       -0.9923870169
 H         -2.0959101660        5.2273823307       -1.1002399143
 O          5.9449118736       -3.2892953600        1.4785841984
 H          5.9649654141       -3.4691763152        0.5269199614
 H          6.5196494370       -2.5123613777        1.5919654632
 O          6.9128207907        1.3671891275       -1.6129157282
 H          6.1151834365        1.2011566624       -1.0461983973
 H          7.1719113089        2.2709036110       -1.3810418632
 O          2.1179601275        1.5337994083        2.4458594309
 H          1.5515586521        1.6287880507        3.2343183689
 H          1.5318480364        1.6097707449        1.6836681041
 O         -1.6336171812       -2.3539753498       -4.3339553055
 H         -1.7962896364       -2.9738724458       -3.6102794035
 H         -0.7433519502       -2.5474138308       -4.6581651179
 O         -1.7451792791       -0.1991070062       -2.5902023713
 H         -1.7366083615       -0.8764428481       -3.2857024434
 H         -0.8253235890        0.1253018390       -2.4933394681
 O         -7.6833203429       -3.7031095059        1.0948175842
 H         -7.5021276033       -3.1521169268        0.3161150051
 H         -7.6407423731       -3.1215204149        1.8584234143
 O          1.1108844782       -2.6544339444       -4.5380623177
 H          0.9341901152       -2.5206817426       -3.5760212158
 H          1.9978000679       -3.0365681553       -4.5756757033
 O          1.2717568220        4.2872904167        3.3077761572
 H          1.0902536243        3.5690695551        3.9248350093
 H          0.5452980875        4.2918244818        2.6617274722
 O         -6.4473890498        2.2514096237       -0.4028426415
 H         -5.7202640511        1.6563838328        0.0024352079
 H         -7.2597543694        1.9160599451       -0.0087219862
 O          0.9348197334       -1.2488326872        3.2372096101
 H          1.5423460934       -0.7882379979        3.8573987679
 H          1.2091084057       -1.0274902195        2.3240988062
 O         -1.8445831285       -3.7912853669       -1.9013711860
 H         -2.2894157898       -3.9621924523       -1.0524969942
 H         -1.3735764861       -4.6230563880       -2.1140792778
 O         -4.5847777595       -0.0748999294       -3.7816301395
 H         -5.4750885211        0.1982916825       -3.4800542249
 H         -4.3578231566       -0.8478042148       -3.2293264213
 O          4.3473510582       -2.3321714513        4.1980980788
 H          5.0970917875       -2.8224298278        3.8543334118
 H          4.2104004540       -1.5931378762        3.5636733107
 O         -5.0262139147        1.7158964876        3.3883872725
 H         -4.1300501247        2.0516364939        3.5131497186
 H         -5.5333551209        2.4646094153        2.9951339495
 O         -0.2007245853       -5.8805912551       -2.2305504473
 H          0.6185463604       -5.7218279690       -2.7030615975
 H          0.0193944677       -5.8805505014       -1.2809930498
 O         -4.2174156034       -2.1704145043       -2.0772673109
 H         -3.6005889678       -2.8586547689       -2.3432632166
 H         -3.8106843593       -1.7682290725       -1.2927031045
 O         -2.7301418174       -0.2198000939       -5.8302051009
 H         -2.3501868443       -1.0531081368       -5.5241357687
 H         -3.5208128995       -0.0990835525       -5.2810147432
 O          0.5052094991        1.6710496949        0.1650795402
 H          1.3450770585        1.9590060847       -0.2718992590
 H         -0.1491934518        1.7080321072       -0.5663431233
 O          0.5539189272        1.8219965359        4.6629280920
 H         -0.1939494708        1.2224647483        4.4744878893
 H          1.1296381667        1.3432137875        5.2683102297
 O          3.0894344504        4.4240014914        1.3610532854
 H          2.7825206986        5.2201704183        0.9163058217
 H          2.5000825958        4.3205918049        2.1453891639
 O         -6.7652855717       -1.9359788898       -0.8696726484
 H         -6.4258054006       -2.2916169293       -1.6971963598
 H         -5.9787652216       -2.0069306318       -0.2572401222
 O         -2.2500413906        2.5589417415        3.1825441916
 H         -1.9651532428        1.6285644232        3.2244618871
 H         -1.7293444623        3.0234875975        3.8408317976
 O          5.0269737656        4.1092950379       -2.8737341542
 H          4.0840172203        4.3314016704       -2.8087720465
 H          5.0679132041        3.2467263999       -3.3188757974
 O          7.5791192280       -1.2902173563       -1.1376055240
 H          7.4676644518       -0.3756658192       -1.4357321947
 H          7.6812398268       -1.2355953760       -0.1748867167
 O          4.1122265627        1.8608712042        4.4506252627
 H          4.9704561156        1.5483432068        4.1286072081
 H          3.6419434318        2.2122140684        3.6849032596
 O         -0.9248233169        1.6823340371       -5.1792180442
 H         -0.0953579385        1.1870068447       -5.1254595254
 H         -1.5663070827        1.0422536364       -5.5555500142
 O          7.6302872924       -1.0907227990        1.6632466526
 H          7.1397591947       -0.3473112439        2.0917596764
 H          8.4481185148       -1.1959184021        2.1487073868
 O         -6.1236526784        3.7247158953        2.0150926415
 H         -5.3149140014        4.2721114117        2.0155581911
 H         -6.2459148023        3.4209807190        1.1032288475
 O         -0.0504403717        3.7384749512       -3.5549155792
 H         -0.2993735449        3.2223265618       -4.3361595269
 H         -0.3710213528        3.1845261976       -2.7987646811
 O         -2.3387009461       -1.1525669605       -0.2619719479
 H         -2.0682113466       -0.7855947759       -1.1495220495
 H         -2.6565714870       -0.3997631910        0.2408822648
 O         -4.6366336924        0.6666936823        0.8119764258
 H         -4.7287995663        0.9463510473        1.7425274459
 H         -4.7380515703       -0.2984804000        0.7897816236
 O          6.8090983227       -1.3936342747       -3.9372876766
 H          6.1112601545       -2.0461790263       -4.0250206133
 H          7.3097812378       -1.6023378445       -3.1429202259
