  611
      -1033.52593967
 H          0.7720247213       -1.3773788237       -1.4303014865
 C          0.1099095132       -0.7698784935       -0.8156407618
 H          0.6429313974       -0.4392879938        0.0732318462
 C         -1.1088705296       -1.5924469595       -0.4314656726
 H         -0.7861939785       -2.4513854611        0.1444521457
 H         -1.5579153237       -1.9624196599       -1.3531969882
 N         -2.1166055930       -0.8306218664        0.3138507599
 H         -2.1145472928       -1.0714008524        1.2950091798
 H         -1.9334925761        0.1644780280        0.2463098541
 O         -0.2590200807        0.4037315465       -1.5274597227
 H         -0.9459096513        0.1730377738       -2.1872327065
 O         -7.4503784544        4.8885690433       -3.5363903338
 H         -7.4661078162        5.4671076387       -2.7477272525
 H         -8.1036184292        4.1936474828       -3.2939341065
 O         -0.4278860382        1.3138430193       -4.4014999054
 H          0.3739466675        0.9589707769       -3.9660541879
 H         -0.1217892819        1.6571946531       -5.2525349397
 O         -2.3827420759       -0.0316222413       -3.2298521925
 H         -2.8944276348       -0.7196433297       -2.7686562193
 H         -2.8773389219        0.7838741593       -3.0181533130
 O          3.6356318714        1.4694027897        2.0593129545
 H          4.3353338618        1.4796580589        1.3800854573
 H          2.8232206145        1.8297545365        1.6372842430
 O          4.1570834540        2.9667508119       -0.3625915592
 H          3.6943283748        2.1788587794       -0.6899768509
 H          3.4812987130        3.5971118298       -0.0983788734
 O          0.8714082725       -6.0123214311        5.7289004593
 H          0.8192810550       -5.4492672029        6.5151272504
 H         -0.0396692879       -6.1398061512        5.4087448110
 O          1.1975307732       -0.6784817707       -6.6845862989
 H          0.7695223461       -0.9464911972       -5.8480531722
 H          2.1121451818       -0.9927457972       -6.6121413277
 O         -4.2674141504        1.6060103784       -2.4200748664
 H         -4.3189115736        2.5485796716       -2.6727024051
 H         -4.0651132614        1.5960286996       -1.4580937614
 O          5.4375214035       -1.9598692496       -0.2946570877
 H          5.8929275042       -1.9611654484       -1.1413233764
 H          4.4912306063       -2.1485935351       -0.4939242069
 O          3.3341356745       -6.0703583702        4.2879335459
 H          2.5813048845       -6.3323611370        4.8314830626
 H          3.0265895032       -6.0082560254        3.3546304682
 O         -2.8837348985       -2.9696201378        5.2822741426
 H         -3.1373142891       -3.9030500993        5.2378099992
 H         -1.9077373186       -2.9065762523        5.3984718046
 O          1.5927949926       -3.1832297144        1.1136385236
 H          2.2362165591       -2.4652579509        1.0102849780
 H          1.3663024486       -3.5032166629        0.2203014792
 O         -2.2527518370       -0.2140390677        7.3907871165
 H         -3.1496907860       -0.5456378209        7.2748968426
 H         -1.8780525961       -0.1550795758        6.4893431524
 O          0.8520790730        2.8419075986       -2.0483243692
 H          1.1582724533        3.0218828982       -2.9511815047
 H          0.5697892740        1.9198181286       -2.0189894488
 O          1.9673921892       -1.5892496742        3.7347618857
 H          1.0503680629       -1.8432235330        3.5636579807
 H          2.3684162103       -1.4385312580        2.8549371912
 O         -5.4099542803        5.5603729341        4.7662308175
 H         -5.3411878679        5.8363057191        3.8454769378
 H         -4.4971936347        5.4344808629        5.0752245904
 O         -2.1975857220        2.4379993535        6.7469098431
 H         -1.2181605389        2.4696312079        6.6385977414
 H         -2.3301074171        1.6898244232        7.3484934858
 O          8.1867314149        4.0267189801        3.2608713652
 H          7.5336699198        3.6821597381        2.5988571207
 H          8.9360723061        4.3115920066        2.7329246546
 O         -1.4134095399        2.1244103630        0.2422881219
 H         -0.9728883028        2.8081670602        0.7663496906
 H         -0.7775568274        1.7753480843       -0.3983015890
 O          3.3286588674       -1.1071599789        1.5104198136
 H          4.1263575298       -1.5398390187        1.8711844109
 H          3.4284529324       -0.1545642664        1.7322385659
 O          5.4243113765        0.6760141098       -2.2020699771
 H          5.0379036064        1.5204012254       -2.5088422793
 H          5.4929462527        0.7387058756       -1.2244706306
 O         -0.8242317655        2.7579763106        3.9223415599
 H         -0.8732439399        3.4855326601        4.5555704452
 H         -0.0080882413        2.9521762413        3.4257496803
 O         -2.9942488544        6.1624593832        0.0052731731
 H         -2.9976084709        5.2539565289       -0.3901597238
 H         -2.2951316906        6.6596342307       -0.4560956934
 O         -5.6458944505        3.7605665503       -0.2766254540
 H         -5.1896291759        3.9462032477       -1.1210391881
 H         -5.1723746033        2.9841744443        0.0745901393
 O          0.3202791611        6.5016100195        2.7725871198
 H         -0.4284914271        7.0925706137        2.5203543698
 H          1.1349552319        6.9172838965        2.4721392666
 O         -2.8999929301        4.6569029719        5.3206263721
 H         -2.8245681973        3.8978768463        5.9225108504
 H         -2.0330166400        5.0933833259        5.3699102844
 O         -7.4160104004        1.6734530908        0.6941537918
 H         -8.1769250492        2.2672604896        0.5089795672
 H         -6.7876256220        2.1587758938        1.2579485465
 O         -6.0606836031        2.9312721112        5.1090842112
 H         -5.8304839077        3.8762942202        5.1600845654
 H         -5.2393897455        2.4104233185        5.2208602909
 O         -0.5266329623       -1.4365892765       -4.7055579241
 H         -0.8379793397       -0.6005473340       -4.3222899592
 H         -1.0736847038       -1.6033857319       -5.4858732961
 O         -4.2717166665        1.4496645676        0.2223101839
 H         -3.6487558868        1.4068114803        0.9720184096
 H         -4.8818881177        0.7020555578        0.3106630296
 O          3.3398421169        6.4116411448        4.4906477006
 H          3.1369277729        6.4478099200        3.5393498561
 H          4.2870374800        6.2492295381        4.5497091548
 O          7.4027489417        0.3729120644       -3.8796623084
 H          7.8248003285        1.2542472417       -3.8953799679
 H          6.7361323987        0.4006938703       -3.1584719119
 O          4.1476923170       -1.2799197811       -3.4161135726
 H          4.9062392241       -1.8975900654       -3.4740620742
 H          4.5287900110       -0.4704762857       -3.0098976610
 O          8.5335761951        0.9832589646       -1.2283335970
 H          8.2024383633        0.0850879135       -1.4319447269
 H          7.8081009584        1.6072386065       -1.3872353918
 O          6.3235522054       -2.6863039572       -3.5849482710
 H          6.3904317990       -3.6362707107       -3.8126177208
 H          7.0461989722       -2.4343416810       -2.9777137978
 O         -5.3194169798       -0.7426558038       -3.6561754709
 H         -5.5538279523       -0.4677046032       -4.5685031227
 H         -4.9517769938        0.0348908119       -3.2141720481
 O         -2.7620926257        1.3872840353        2.4955222568
 H         -3.1841025050        1.2697239483        3.3703832494
 H         -2.5441496166        2.3314858544        2.4819895590
 O          8.0180167782       -1.5943022268       -1.7709820209
 H          8.9062627972       -1.8464594516       -2.0937287393
 H          7.9902740328       -1.9577592517       -0.8672662736
 O         -3.8992591173        1.3509974412        4.9459214128
 H         -4.1451092998        0.4911436860        5.3451530599
 H         -3.2115781631        1.7354524504        5.5253993966
 O          1.0929375106       -4.2184044189       -1.3252301255
 H          1.5787796652       -5.0652104750       -1.1982069362
 H          0.1697534525       -4.4026090377       -1.0555050144
 O         -0.9514791031        4.5418033145        1.3539046694
 H         -0.9621164013        4.8569639731        0.4337610514
 H         -0.4274194376        5.1740637102        1.8697013459
 O          5.6241941197       -1.5234875438        6.3700730953
 H          6.0888485095       -2.2914492673        5.9800784288
 H          4.9198094594       -1.9023704008        6.9249479995
 O          8.1428620543        5.9649147090        0.2719167961
 H          7.2819000895        5.9806466151        0.7180561563
 H          8.5540384181        5.1057368488        0.4900580616
 O          6.7349009432        3.0052441875       -1.0783068014
 H          5.7669459775        3.0475300999       -0.9631641613
 H          7.0018017220        3.7967518997       -1.5849788878
 O          3.4615631309        3.3225687085       -7.0832370349
 H          2.6654843653        3.1993192208       -7.6041225057
 H          3.4603201014        2.5640843655       -6.4498311039
 O          3.5663084964        1.9309119173        6.2643908874
 H          3.6792991244        1.1628857334        5.6605702898
 H          2.9933161772        1.6394037667        6.9747286489
 O          0.4525810221        2.3481072311        6.5311678681
 H          0.7706533644        1.9566647172        5.6971985544
 H          0.9490220591        3.1662736581        6.6336569368
 O          5.2167475570       -4.5022408513       -1.3591205294
 H          6.1720776618       -4.3938422877       -1.5557526791
 H          4.6933251492       -4.3856348039       -2.1764793214
 O          6.2440425244        3.1146093321        1.7109110478
 H          6.4965698913        2.8367207414        0.8198257736
 H          6.1154207879        2.3041246162        2.2488752648
 O         -0.1740275791       -7.4896221326       -0.5934244089
 H         -1.0376068680       -7.8151093823       -0.3124799031
 H         -0.3572505796       -6.9797513292       -1.4088532084
 O         -5.3329556730        5.9423126957       -5.2656762695
 H         -4.9157334683        5.0863922094       -5.4938972878
 H         -6.2018399820        5.7352885734       -4.9021160628
 O          4.3390548921        2.8457288057       -3.2572887682
 H          3.6683267176        3.4033591538       -2.8165347991
 H          4.9844881342        3.4891205154       -3.6219728948
 O         -0.7103122739        4.6069404186       -5.3635859712
 H          0.1505406716        4.2196331809       -5.0820577298
 H         -1.0603186040        4.0136793182       -6.0487499333
 O         -5.9516350878       -0.7247699633        0.3622971659
 H         -6.8637403211       -0.7194696885        0.0303986844
 H         -5.9828922768       -0.5076706603        1.3246393303
 O         -5.4746065041       -0.1556728236        2.8584209403
 H         -4.5677947925       -0.4778359699        3.0418250360
 H         -5.4348279807        0.8229359696        2.8254768432
 O         -0.9059454487       -6.0407292724       -2.7998771881
 H         -0.9490994704       -5.0573606624       -2.8433527154
 H         -1.8227638160       -6.3257063386       -2.8733640932
 O         -4.9659029890        4.1164657258       -2.8495184897
 H         -4.4026725498        4.9062100718       -2.9372335395
 H         -5.8599875260        4.3539602231       -3.1626782849
 O         -4.2174497208        3.4471762435       -5.5475232351
 H         -5.0063433773        2.9203417686       -5.3746683155
 H         -3.6279787611        3.3230402051       -4.7783318849
 O         -5.5491257262        2.5025830303        2.5236432625
 H         -4.7026947833        2.9657663451        2.4470163935
 H         -5.8972831757        2.7299557147        3.4105695936
 O         -3.7696746957        6.5240374765       -3.2047574597
 H         -4.3014393614        6.5281774718       -4.0319059995
 H         -4.2660364002        7.0130034264       -2.5292522179
 O         -2.1940210798        3.1877587974       -3.6380572396
 H         -1.6333443891        2.4011991313       -3.7864468046
 H         -1.7391929693        3.8849823157       -4.1446410017
 O         -8.2694394705       -0.0555755163        2.4823427030
 H         -7.9901673474        0.4685131896        1.6961524169
 H         -8.2640123942        0.6246212726        3.1928540885
 O          4.0846831063       -0.1610008795        4.6823949975
 H          4.6484416046       -0.7099656841        5.2698331788
 H          3.2975218816       -0.6806109543        4.4572066710
 O         -6.8672751038        1.3672968329       -1.8936332534
 H         -6.9705695272        1.4397082946       -0.9211463566
 H         -5.9327936468        1.5485935352       -2.1083356896
 O         -0.2446037164       -2.7047313487        5.4379677572
 H          0.1275688547       -3.2146077237        4.6846837299
 H          0.0552132027       -3.1875008219        6.2401011113
 O          1.5115081567        1.1273951892        4.2996713422
 H          0.9350712313        0.9422186880        3.5313350084
 H          2.3134350103        1.5275793820        3.9561825142
 O          5.9306944250        5.4053359873        3.8881397039
 H          5.8051465588        5.7492758609        2.9921503472
 H          6.8296673544        5.0336617431        3.8786234222
 O         -9.2126728165        1.1461512793       -4.6397983837
 H         -9.4630208440        1.8528893193       -4.0236206514
 H         -8.8354299868        0.4468605357       -4.0629589972
 O          3.3186046902        5.3804967704       -5.2863576380
 H          3.4434418148        4.8447139932       -6.0904855135
 H          4.1739742831        5.3623233497       -4.8301317663
 O          2.8919802147        4.8055477053       -2.2432366273
 H          2.4026681323        5.5174142414       -2.6973697656
 H          2.4021139568        4.6000464356       -1.4281077217
 O          1.8506357094        4.5705436776        0.2419304455
 H          1.5580426930        3.7299463789        0.6515711476
 H          1.0526182942        4.9801476215       -0.1374588790
 O          1.5448227924        7.3620454966       -0.5128674995
 H          1.9952694034        7.3647463886       -1.3619128991
 H          2.2085301429        7.2456192200        0.1817195005
 O         -1.7883748545        7.7954947855        1.8509928942
 H         -1.5014910968        8.2637065163        1.0590405062
 H         -2.3783309785        7.0998047887        1.5164414834
 O         -5.3313327200        5.4335925338        1.7858443861
 H         -4.4813695100        5.0759315235        2.1092495609
 H         -5.4558753974        4.9462976275        0.9447671593
 O         -3.9667380974       -1.2355451059       -1.4249219241
 H         -3.3173575785       -1.0290298741       -0.6843059882
 H         -4.8312412959       -1.0414446027       -1.0482758950
 O          3.5908173044       -4.3364764691       -3.4251450275
 H          3.8865146887       -4.4621645656       -4.3467294307
 H          2.9737342710       -3.5769468534       -3.4610098167
 O         -3.7818723027       -6.1009433407       -2.3894228613
 H         -3.7999992648       -5.2256899036       -1.9435251043
 H         -4.7043464626       -6.4362562057       -2.3607268529
 O          6.0542860984        1.1408003080        3.4722345572
 H          5.2213819883        0.6725137783        3.6766755730
 H          6.2024186068        1.7142096783        4.2487361757
 O          6.0884220644        2.7346699320        5.6901754575
 H          6.1122702286        3.6702532713        5.4793367369
 H          5.1700827072        2.5408632905        5.9665286537
 O         -3.5469883094       -2.7208013558       -4.1832431300
 H         -4.0492681390       -3.5307289163       -4.4013892883
 H         -4.1898650776       -2.0110246580       -3.9976282971
 O          3.0146352113       -2.1635926703       -1.1916902282
 H          3.2946910698       -1.8760287303       -2.0890423026
 H          2.5635406521       -3.0067492349       -1.3057118038
 O         -0.3787069177        5.0305788884       -1.2334562168
 H         -0.0435739046        4.1782763377       -1.5853896816
 H         -0.6227140972        5.5740542286       -1.9990311787
 O          6.2662128837        3.3065609057       -6.5312075051
 H          5.4430534841        3.5117133922       -6.9907436753
 H          6.2228413309        2.3422386157       -6.3827690602
 O         -1.9230751400        2.6261342357       -6.8878107860
 H         -2.7374653910        3.1445744767       -6.8654680075
 H         -2.2050143953        1.7738063685       -6.4981861118
 O          8.9100567748       -4.2092682416       -4.0235052455
 H          8.8897052949       -3.3024935144       -4.3906343248
 H          8.1943010875       -4.6921340794       -4.4587869730
 O          8.6342375924       -5.8251218995        0.6102761957
 H          7.9156597443       -6.4829871797        0.6926979150
 H          8.5642628863       -5.3091146048        1.4377675387
 O          6.5097607991       -1.9670519531       -6.2031147650
 H          7.4539247842       -2.0032280480       -6.3736487850
 H          6.4317639328       -2.1872747229       -5.2494377223
 O         -5.7588250289       -3.8650866090        3.4263831143
 H         -5.2723953610       -3.4834489443        2.6632126135
 H         -6.1386395415       -3.1010621805        3.9171875538
 O          0.8401926634       -4.1110833244       -5.6474450002
 H         -0.1170124762       -4.1121785335       -5.7899806536
 H          1.0546852217       -4.9408747262       -5.1690428895
 O          3.6915990443       -1.6483856971       -6.0360430695
 H          3.7487922359       -1.4572284294       -5.0736745777
 H          4.5959874408       -1.6085513284       -6.3651614142
 O         -9.2234185735        5.5212673926        0.9022182431
 H         -8.5968980774        5.8291667588        0.2237057346
 H         -8.6872267670        5.2986528019        1.6861911433
 O         -7.8822006794       -2.6174098684        1.6600697397
 H         -7.8632869167       -1.8013924157        2.1885345552
 H         -8.6615421044       -3.1279462019        1.9507518524
 O         -0.1587415658        0.4958440702        2.2756737690
 H         -1.0539385284        0.8870977558        2.3351121772
 H         -0.2758229113       -0.4705582198        2.3313732670
 O         -1.9508976662       -3.9330349080       -6.0643504194
 H         -2.5113166219       -4.7038477711       -6.1776071053
 H         -2.4105994744       -3.3993650361       -5.3890818649
 O        -10.1549700266       -3.9474745224        2.1260474972
 H        -10.0381894604       -4.4784112384        1.3008454124
 H        -10.9078136735       -3.3740979996        1.9176952165
 O         -8.9366410763        2.8925505476       -2.5863634812
 H         -9.3287998185        3.0600879367       -1.7120647670
 H         -8.1442336139        2.3457054820       -2.3839185830
 O         -1.3073004036       -4.7177882455       -0.1857552815
 H         -1.6050546843       -5.6439136125       -0.1313469989
 H         -2.0369360744       -4.2535362507       -0.6413657014
 O         -7.6008462571       -2.0685321230       -5.2831752637
 H         -7.0295650350       -1.5383404214       -5.8499788454
 H         -7.6614155318       -1.5733327858       -4.4396977230
 O          3.2210809600       -2.6110102615        7.0975793970
 H          2.6679753862       -1.8267981190        6.9064362733
 H          3.4163323240       -3.0058606144        6.2199593710
 O          2.7901994765        0.6785731159       -1.0771430648
 H          2.4303279237        0.5554878415       -1.9776811912
 H          2.9692407572       -0.2046654655       -0.7334096152
 O         -8.0599983386       -0.6536493617       -3.0372359260
 H         -8.4570032652       -1.0014434886       -2.2231551014
 H         -7.4621915786        0.0536916657       -2.7041561300
 O         -9.5638507209        3.0762206249        0.0516707421
 H         -9.5146090210        4.0200751567        0.3564257884
 H        -10.3154285752        2.6725971074        0.5119917654
 O         -5.0639157302        7.4053604816       -0.9374456382
 H         -4.3410664036        6.8832800017       -0.4786715497
 H         -5.1389479406        8.2301573842       -0.4603404970
 O         -7.6114426626        4.6170801781        2.9110897918
 H         -6.7531955959        4.8495389918        2.4775916907
 H         -7.5719829240        5.0258485745        3.7779696309
 O          1.4511231321       -0.7084538828        6.3568142282
 H          0.8441941849       -1.3734500520        5.9838837586
 H          1.5841991659       -0.0471681120        5.6572746271
 O         -7.6107827419       -6.5172336044        0.0213209900
 H         -7.1035622289       -5.6696611092        0.0150673874
 H         -7.6109942841       -6.7584346836        0.9568363468
 O         -4.3988872876       -2.7445701807        1.3878007663
 H         -4.9681226079       -2.0786407598        0.9679688903
 H         -3.7429834076       -2.2591499071        1.9097255342
 O         -0.1351017363       -1.5548448895        8.5524568672
 H         -0.9819304240       -1.1558871465        8.2920190644
 H          0.5282112064       -1.0343497949        8.0811285225
 O          1.5606662758        3.4989228540       -4.5774713830
 H          1.6489610429        2.8570869716       -5.2966283751
 H          2.2413575369        4.1911914021       -4.7113876003
 O          2.3247914376       -6.4702919359       -0.6353838364
 H          2.5181284841       -6.1849365253        0.2926033372
 H          1.5845286808       -7.0869032787       -0.5850273949
 O         -7.2677131680        5.8307173442       -1.0091804285
 H         -6.5404122780        6.4788572539       -0.9514066274
 H         -6.8767750024        4.9919900221       -0.7114948302
 O        -10.9479241935       -1.9761865414       -2.7621079859
 H        -11.0013466036       -1.1568693205       -2.2517597371
 H        -10.8203554571       -1.7321161749       -3.7124060926
 O         -1.1021265674        6.4823989967       -3.4698736560
 H         -2.0716259076        6.5629318501       -3.3634663067
 H         -0.9944069531        5.9223293614       -4.2571951000
 O          6.0554772592       -5.8849670646        3.7878500143
 H          5.1236149488       -6.0022007154        4.0258364486
 H          6.2639372072       -6.6135652923        3.1946240629
 O         10.1212285749        4.2944486532       -3.0657236561
 H         10.7221544901        4.9229713537       -3.4638703065
 H         10.7062545195        3.6159535150       -2.6136086390
 O          5.0100945524        6.1335848811       -1.3629673917
 H          5.7788595393        5.9996560715       -1.9218925494
 H          4.2739921137        5.6032335975       -1.7410580639
 O         10.4956391872       -2.5700308454       -2.2739496652
 H         10.3246953050       -3.2671621365       -2.9148678582
 H         10.4798898513       -3.0016709997       -1.3897713195
 O         -5.7012839636        0.0308573199       -6.1450870228
 H         -6.0948925679        0.9061086031       -6.0295387889
 H         -4.7393951535        0.1726985579       -6.2466006909
 O         -3.0505936304       -1.2915840347        3.2598692078
 H         -3.0819888057       -2.0167281415        3.9167713726
 H         -2.4385497058       -0.6530379897        3.6708285178
 O         -0.4106764776       -2.1483882576        2.5430232709
 H          0.2674705199       -2.6282819789        2.0244256224
 H         -1.1355274128       -2.7758983396        2.6814247908
 O         -9.8241049562       -5.0610869074       -0.2592918751
 H         -9.4057441500       -4.4294242388       -0.8857450039
 H         -9.1622205847       -5.7783684588       -0.1730759513
 O          5.3286943730       -2.3623819556        2.7961203395
 H          4.8301031694       -2.7521677010        3.5479992886
 H          6.1461516321       -1.9787237923        3.1692696204
 O         -6.2867126745       -4.2465414280        0.1719852600
 H         -6.1053766065       -3.7500483931       -0.6448055966
 H         -6.7962848751       -3.6559853171        0.7540784215
 O         -2.9964250722        0.3052442900       -5.9119691784
 H         -2.5457340164       -0.3541403803       -6.4609082158
 H         -2.7502116248        0.1352768530       -4.9805702037
 O          3.4885878589        1.3715530952       -5.2464228901
 H          3.7654728193        1.9400906861       -4.4869298839
 H          4.3149402422        0.9506575045       -5.5582574209
 O         -6.9691261089       -4.4313230692       -4.0475066360
 H         -6.5507388078       -3.9129193064       -3.3206806432
 H         -7.2260382422       -3.7559640710       -4.6996863474
 O         -6.2432144040       -2.7730779971       -2.0959830979
 H         -5.9100904470       -1.9973681653       -2.5842430467
 H         -7.1913862833       -2.6305343941       -1.9468941633
 O          5.8328940220        4.7546497610       -4.2953944771
 H          6.1446879705        4.2806452826       -5.0955991644
 H          6.6025574168        4.9202743858       -3.7330774853
 O         -2.9618884941        3.7906694665       -1.0878639019
 H         -2.4770846758        3.1462835395       -0.5337220888
 H         -2.6090067769        3.6975755455       -1.9864974463
 O         -1.3344916543        0.1926732163        4.8207886149
 H         -0.5051147955       -0.2883477591        4.8068415781
 H         -1.1396429928        1.1206115324        4.5683352459
 O          0.8468223150        1.9762330899       -6.8049875407
 H         -0.0019034976        2.1361114137       -7.2315649428
 H          1.0355505871        1.0134102911       -6.8673930872
 O        -11.0639527880       -0.1993275685       -0.5560169880
 H        -11.5336528213       -0.8666109662       -0.0298387644
 H        -11.2716381381        0.6546657394       -0.1567556403
 O         -6.8276328646        2.3668417786       -5.1089308439
 H         -7.6855632018        1.8963508879       -5.0470068485
 H         -7.0251690005        3.2656730741       -4.8299974996
 O         -4.4358446246       -5.1339298268       -4.8676709461
 H         -5.4010223609       -5.0956539823       -4.7647843048
 H         -4.1108384154       -5.6255050933       -4.0908431987
 O          8.9867341309        3.4262349494        0.6575943274
 H          8.4198235263        3.0946503062       -0.0486220716
 H          9.8136314920        2.9044575575        0.5975285486
 O          0.0540009501       -6.1251221204        1.8850596513
 H         -0.4199643127       -6.6685744108        2.5173241699
 H          0.0567184751       -6.5924081587        1.0373887173
 O         -1.0705177645        7.8913020766       -0.9094514174
 H         -1.1129320029        7.8999632410       -1.8684851363
 H         -0.1421321485        7.6757796997       -0.6990067957
 O         11.0825135697        1.7810640506        0.5091133154
 H         10.7556340974        0.9033285553        0.2158427038
 H         11.4125429516        1.6048860705        1.4136885508
 O          1.4140942379        2.0235110677        0.7768072839
 H          0.7846634816        1.4687577450        1.2738716657
 H          1.7149344489        1.5417175196       -0.0170333598
 O          3.6847565247       -3.4277691812        4.5985063939
 H          2.8813779376       -2.9986695381        4.2329904410
 H          3.5650139883       -4.3943448139        4.5057032226
 O          6.9143866330       -3.5934407778        5.2445642824
 H          6.4532931019       -4.4248218782        5.0851004257
 H          7.5941831788       -3.5540852242        4.5584132321
 O          7.8248543522       -4.3024975308       -1.5000555419
 H          8.3104020632       -4.4599127754       -2.3252689627
 H          8.1435634671       -4.9284486712       -0.8228762391
 O          7.7759274811       -2.2163529285        0.9137378221
 H          7.9479128283       -1.2962175329        1.2049715056
 H          6.8290509103       -2.2604795165        0.6952014944
 O          2.9641487132        6.4314778965        1.7502280936
 H          3.9147363111        6.3023245215        1.5743404554
 H          2.5340658161        5.6502299577        1.3324035760
 O         -8.3801873626        2.1175968155        3.9673070109
 H         -7.6904090057        2.2271011558        4.6379128382
 H         -8.3017100438        2.9130295752        3.4184681690
 O         -0.2964021390        5.2294506918        5.1515868415
 H          0.5604465578        4.9751776059        5.5388599153
 H         -0.0896245811        5.8314486779        4.4226592534
 O         11.7115458545        2.5125102429       -2.0584582808
 H         11.4408420087        1.6770511151       -2.4842739478
 H         11.5978576204        2.3646046522       -1.1035905990
 O          7.5174250728       -1.0982428138        3.7112641708
 H          7.6774053855       -1.0446277775        4.6595768307
 H          7.1163290195       -0.2287410705        3.4834988456
 O          3.9461063571        3.4389992224        3.8571569511
 H          4.1041690963        2.7361582360        3.2033569021
 H          4.6558005581        4.0926468665        3.7777952342
 O         -4.2224575134       -5.3583806915        4.9838969280
 H         -4.7832586467       -5.6067563062        5.7173430477
 H         -4.7887350289       -4.8279292462        4.3703146723
 O         -1.4597151478       -1.5376344234       -7.2841908931
 H         -1.5856296407       -2.4970626138       -7.2316669228
 H         -0.5278017962       -1.3694509379       -7.4806600200
 O          1.7991158739        0.1547366906       -3.5360947888
 H          2.4225059124        0.4590389302       -4.2244898903
 H          1.7364728130       -0.8147707201       -3.6040282954
 O         -8.5280035715       -1.1419666876       -0.4663646069
 H         -8.4627920362       -1.8195844008        0.2324096870
 H         -9.3969779294       -0.7120326317       -0.3952754534
 O        -12.1366254664       -3.7821018572       -1.0493085967
 H        -11.4445051949       -4.4396839241       -0.8706550451
 H        -11.8196818905       -3.2311915830       -1.7869535754
 O         10.0069569044       -1.6444401498        2.7148625650
 H         10.0244544280       -2.6037913047        2.7231411473
 H          9.1300360425       -1.3872080053        3.0671876013
 O         -6.7643908700       -1.7181632226        4.6123981619
 H         -7.7327565034       -1.7937941246        4.6184098023
 H         -6.5134921680       -1.0317211823        3.9601650859
 O        -10.8438965524       -0.3898683527        2.7140329889
 H         -9.8677762448       -0.2810241006        2.5560997944
 H        -11.1619309145       -1.0794792280        2.1193107163
 O         -1.2510130743       -3.4045233880       -2.9948859596
 H         -2.1921479247       -3.2919197798       -3.2044012748
 H         -0.8128271175       -2.7603375764       -3.5811618301
 O          5.3099672687       -4.5262196986        1.2854840112
 H          5.3691292074       -3.6866248116        1.7874669557
 H          5.2661203701       -4.3142543296        0.3356269856
 O        -10.3217178263       -1.3427171764       -5.2567836363
 H         -9.4567816460       -1.7463780986       -5.4382191533
 H        -10.1681509902       -0.3866223918       -5.2873099087
 O         -4.5710485041       -1.0096333366        6.0894436569
 H         -3.9914956319       -1.7508929100        5.8331318040
 H         -5.4541041350       -1.2446236497        5.7654854396
 O          2.9059690091       -5.4747815618        1.7334874499
 H          3.8311453096       -5.1598811357        1.5950796338
 H          2.3479082506       -4.6720257487        1.7137164923
 O          7.5812514483        0.4328450924        6.0841377651
 H          6.9287879239       -0.2107065400        6.4016928053
 H          7.1554321653        1.2950111168        6.1849984162
 O         10.2101573091       -3.5669798247        0.1867464670
 H         10.0192637685       -4.5094485958        0.2422728350
 H          9.3901284513       -3.1188511695        0.4505858281
 O          0.8362787447       -3.8701044050        7.5720347564
 H          0.4064308436       -3.2096804475        8.1525544302
 H          1.7693565702       -3.5748533825        7.5293625684
 O          6.3231457244       -5.0781506256       -4.7504989741
 H          5.8088142867       -4.8220895283       -5.5246207693
 H          5.8552985547       -5.8713318455       -4.4015067785
 O          2.1945017637        4.4386662834        5.9388617666
 H          2.6197537302        5.1993183230        5.4974509054
 H          2.7788973593        3.6841148352        5.7662488485
 O          8.1109341087        2.8984768869       -4.2264692180
 H          8.0701647685        3.1000408768       -5.1629452119
 H          8.9041376155        3.3244270729       -3.8584993924
 O          0.9975365618       -4.2692506360        3.6834352100
 H          0.6454802737       -4.7765684919        2.9383257148
 H          1.0978424464       -4.9181174147        4.4027520462
 O          8.9942242550       -1.5847569266       -4.8206496861
 H          9.8542714157       -1.2195415555       -4.5952998781
 H          8.3634452272       -0.9534973923       -4.4176426815
 O         -4.4532801761       -5.6576501722        1.6079066528
 H         -5.0777194643       -5.1259185633        1.0743314766
 H         -4.9786402928       -6.0825670301        2.2869511468
 O         -3.6560479859       -3.7995162617       -1.0326457998
 H         -3.8003271833       -2.9059590818       -1.4174610228
 H         -3.9341161044       -3.6902717571       -0.1070566027
 O         -7.5393980472       -5.7758106202        2.6924233376
 H         -8.4252654410       -5.4425871849        2.8438733229
 H         -6.9338363004       -5.0527931893        2.9536569244
 O        -11.5977407413        1.7769592871        1.3729251147
 H        -12.0990432922        2.4063872657        1.8900912113
 H        -11.3320168463        1.0522379469        1.9906798386
 O         -1.5336347046       -5.9563362161        4.3926316872
 H         -1.6078111442       -5.2834219307        3.6835933193
 H         -2.4318126069       -6.0510445967        4.7243648870
 O         -9.4540439520       -2.2284638627        4.3776128060
 H        -10.0382962209       -1.4986058327        4.1297960224
 H         -9.7382945289       -2.9961292411        3.8709381344
 O        -12.1086720692       -2.2600936358        1.0185830931
 H        -13.0074431745       -2.2219220922        1.3465493217
 H        -12.1399414437       -2.8702131152        0.2114707106
 O         -2.7683424203       -7.0370523191       -0.0253317319
 H         -3.3859675931       -6.6560417694        0.6228997798
 H         -3.1744222980       -6.8878503981       -0.8979831046
 O         -6.3523588088       -6.7599422259       -2.4519404844
 H         -6.8586110998       -6.8415695977       -1.6304293122
 H         -6.7976693943       -6.1094515685       -3.0068662398
 O         -8.8590027294       -3.4658724274       -2.1563259209
 H         -8.5912116838       -3.9739257391       -2.9324139565
 H         -9.6219705428       -2.9040110771       -2.4208107572
 O          5.6129113657        0.5774080490        0.4407161076
 H          6.4990816131        0.5968320323        0.8521789229
 H          5.4040948785       -0.3712355996        0.3378462946
 O         -3.1988236373        4.0868499510        2.6822481086
 H         -3.0254674729        4.2541474980        3.6296462318
 H         -2.3867312300        4.3276429972        2.1862418135
 O          5.4866314809        5.6445964301        1.1575176128
 H          5.3109704944        5.8336234072        0.2010443100
 H          5.5602774921        4.6756280836        1.2397185465
 O          4.8689150578       -7.1290917673       -1.2375363022
 H          5.0853265615       -6.1667821239       -1.2515256305
 H          3.9162289998       -7.1303267768       -1.0394220741
 O          1.5939587297       -2.6135704967       -3.5919350517
 H          1.2866562211       -3.0069880778       -4.4408002274
 H          1.1060247885       -3.0765390702       -2.8937933898
 O         10.3594355806       -0.7617045824        0.1518809784
 H         10.2352020290       -1.0630933943        1.0735298438
 H         11.0394520370       -1.3220912538       -0.2206831576
 O         10.5256595776        0.2151712855       -2.9668876644
 H         10.7525676346       -0.6595782072       -2.6296120336
 H          9.8119377419        0.5390927192       -2.3845196650
 O          6.2950636629       -7.0615766050        1.1170245647
 H          5.9365589341       -6.1634634011        1.2402232037
 H          5.8608365562       -7.3817774165        0.3090279619
 O          8.9402890092        1.4847326868        3.7863921127
 H          8.6064532686        1.1208143880        4.6178777848
 H          8.6860522505        2.4273188762        3.7591653501
 O          8.0809773688        0.4341691360        1.3854183865
 H          8.4846702814        0.8509345743        2.1664210674
 H          8.5727677129        0.6996349457        0.5865234151
 O          3.8567327088       -4.3448271507       -6.0893204736
 H          3.7229418650       -3.3765184038       -6.1584401693
 H          3.0143144169       -4.7358373962       -6.3303477666
 O          5.9324694603        0.6548353529       -6.0029476831
 H          6.1182787337       -0.1910840032       -6.4376887253
 H          6.4679536568        0.5924517635       -5.1673697117
 O         11.4524456589        0.8151631345        2.9907561929
 H         10.6379751012        1.1668436265        3.3915076375
 H         11.2926954873       -0.1346043658        2.9357979406
 O          1.6898803876        6.8673262619       -3.4326983596
 H          0.7268850774        6.8357918988       -3.5170412811
 H          2.0710309149        6.6858516899       -4.2994478692
 O          8.0838585296       -4.1900537713        2.7445533133
 H          7.8395104582       -3.4567836261        2.1476541598
 H          7.2753141931       -4.6896656844        2.9380718583
 O          1.4683137058        3.8230383871        2.9369867323
 H          2.3394750866        3.7284581758        3.3671637969
 H          1.2098044985        4.7382543875        3.0639288611
 O         -2.1346394037       -4.2484470542        2.3704082056
 H         -1.6468843576       -4.4734332079        1.5524320236
 H         -3.0297341472       -4.5911708912        2.2258842820
 O          7.6702019699        5.2531685510       -2.2231843413
 H          7.8491128570        5.6717424753       -1.3420723694
 H          8.5459709929        4.9654534361       -2.5300966226
 O          1.6225028198       -6.1343532992       -4.0476639759
 H          2.2572102831       -5.6049156358       -3.5302310586
 H          0.8245034469       -6.2432953184       -3.5127738844
 O          4.7931754502       -7.1065320863       -3.9344289472
 H          4.8683827491       -7.2487154315       -2.9669179906
 H          3.8567678778       -7.0057355434       -4.1244888585
