  146
       -243.93295058
 H         -0.4273450645       -1.0197132494        0.7194412983
 C         -0.8127001296       -0.1899761235        1.3193859346
 H         -1.4290302847       -0.5883926182        2.1267726267
 C         -1.6421361175        0.7450096073        0.4366413421
 H         -1.0178646619        1.1105146912       -0.3795119496
 H         -1.9685419823        1.5929132304        1.0382403916
 N         -2.8251887031        0.1318238344       -0.1499095631
 H         -2.5494432091       -0.6635228916       -0.7196083887
 H         -3.4261799158       -0.2098867831        0.5936115129
 O          0.2574440186        0.4933367980        1.9384412964
 H          0.7261382673        1.0129786056        1.2524095247
 O          2.9392374623        3.0042904781        2.1849269431
 H          3.0678946351        2.1146183441        2.5755241395
 H          2.3224165162        3.4719489045        2.7965776762
 O          5.0053057398       -0.6688854244       -0.3663361487
 H          5.1816125480       -1.0649516839       -1.2630160807
 H          5.1200657779       -1.4146178653        0.2681378186
 O          3.3061933609        1.2349455116       -1.4801204665
 H          3.9859990818        0.7627431577       -0.9801415217
 H          3.6951334892        2.0836216822       -1.7666813884
 O          0.9719065820        3.9645133319        3.6807737168
 H          0.5831061743        3.1598717338        4.0753383610
 H          0.3396589550        4.2408133125        3.0048662511
 O         -0.7416683120        3.7873923625        1.4514524542
 H         -0.0729851564        3.1988937330        1.0790076527
 H         -1.2601452177        4.1155601741        0.6939278982
 O          0.1626336505        3.3996128046       -1.8996107615
 H          0.6596609598        3.1476888020       -1.0979239255
 H         -0.6444216432        3.8532688676       -1.6016374507
 O         -0.2197027741        1.5910471416        4.3381041928
 H          0.2377019762        0.9629371268        4.9070655833
 H         -0.0924119043        1.2161747032        3.4385697845
 O          5.0321634141        3.5443184004        0.4984497679
 H          4.3035193282        3.5091111463        1.1421492616
 H          5.5872411772        2.7737147657        0.7002104793
 O          3.0035228802        0.4257522953        2.9553442476
 H          2.3816278064        0.1354164060        3.6470120723
 H          2.6517750695        0.0456982870        2.1234888964
 O         -4.5232863172       -1.8588897736       -2.4459747505
 H         -3.8085504166       -1.2902119346       -2.7984207676
 H         -5.3321485234       -1.3325440742       -2.5697069306
 O         -0.5915086150       -3.2092247582       -3.6284563428
 H          0.2919124259       -3.5044416251       -3.3791700087
 H         -0.5046430939       -2.4706040070       -4.2487288812
 O          2.0800794573        3.1968134674       -3.8795799618
 H          2.8793701287        3.4045389650       -3.3832595889
 H          1.3483454338        3.4035626968       -3.2768256913
 O         -0.7190219542       -1.0285370095       -5.4219988307
 H         -0.7781166363       -1.2000446709       -6.3616701436
 H         -0.0453481906       -0.3322412026       -5.3067024825
 O         -2.6704520511       -0.1910019942       -3.5581418554
 H         -1.9409858533        0.2190494722       -3.0502408169
 H         -2.2255332646       -0.6044925815       -4.3110261510
 O          6.4686782277        1.1736860769        0.8941801052
 H          5.9682902270        0.5112678084        0.3666676061
 H          7.3849341274        1.1101766511        0.6249293693
 O         -2.2082311452       -2.9628981094        4.6374072388
 H         -2.7501333565       -3.0165564069        3.8328092411
 H         -2.4812774198       -2.1589358904        5.0833968925
 O         -3.8973193986        2.4432139087       -0.9404911993
 H         -3.5170247567        1.5450620263       -0.7364630434
 H         -4.3587869144        2.7143210569       -0.1161807483
 O          1.0462120717       -4.8659363698        0.3820888999
 H          0.1663646224       -4.5368263456        0.6253775909
 H          1.1769375696       -4.6075495314       -0.5511804039
 O         -4.7980332413        3.1175584084        1.4847735801
 H         -4.0822097575        3.0637832610        2.1314563745
 H         -5.4389886941        2.4344622783        1.7430707674
 O          5.0200822403       -2.6515166680        1.4140509821
 H          5.3371906563       -2.0163750227        2.0988925357
 H          4.1289711320       -2.9107914754        1.7161257894
 O         -1.8846173778       -2.4456191107       -1.4249374981
 H         -2.7698405638       -2.7084217984       -1.6901205643
 H         -1.3189305324       -2.6872144692       -2.1918253390
 O          1.2107156234        0.8074769794       -4.8617221705
 H          1.5312170782        1.7188640627       -4.7165459600
 H          1.9100929128        0.2308183165       -4.4853971021
 O          5.5314021994       -0.5583434585        2.9724617432
 H          4.6286939340       -0.2005525196        3.0934512328
 H          5.9966229018        0.1210040910        2.4660101898
 O         -1.1870574359       -3.3583625583        1.0052019063
 H         -1.3585469320       -3.0317438959        0.0969005792
 H         -2.0228331453       -3.2070468568        1.4796273058
 O         -4.7450632166        1.6188462838       -3.3716221696
 H         -3.9979805797        1.0267147311       -3.5716062008
 H         -4.4941219669        2.0688693744       -2.5426361744
 O         -3.8187468825        0.1079557730        2.8097837930
 H         -3.3246042825        0.9346670886        2.9400428373
 H         -4.7442622308        0.3721228376        2.6869045324
 O          4.3673642153        3.6191758074       -2.0475373230
 H          5.1531155679        3.8873452346       -2.5239621016
 H          4.5829466654        3.7205556123       -1.0832397285
 O          0.1510374062       -2.6832577560        3.3260681117
 H         -0.2324101359       -2.8027290570        2.4370807429
 H         -0.5824155588       -2.9128294667        3.9278421545
 O          1.4289641226        2.2371627970        0.1980643423
 H          2.0308291317        1.7663759942       -0.4139706712
 H          2.0275843864        2.6212822183        0.8919301047
 O          2.4109952100       -0.8211076750        0.6155188478
 H          3.3000730745       -0.7624031896        0.2298751352
 H          2.3525275897       -1.7061632582        1.0464591212
 O          2.4043154023       -3.1735859883        1.8480499405
 H          1.9813129451       -3.8778070167        1.2863415049
 H          1.7909747230       -3.0604362131        2.5888326542
 O          5.1921642199       -1.8654089506       -2.6755113406
 H          4.9704716401       -2.7522639296       -2.3609498963
 H          4.3861899722       -1.5152475505       -3.1079985359
 O          1.7064411531       -3.7380848284       -2.0082058476
 H          2.6472598703       -3.7376952508       -1.7793744740
 H          1.3708047009       -2.8492633867       -1.7877814252
 O          0.9668797136       -1.1937964843       -1.5954098844
 H          0.3462163365       -0.4866737232       -1.8549668419
 H          1.3847137659       -0.9270385635       -0.7506039990
 O          2.8774578714       -0.6386170156       -3.3504152911
 H          2.1544128379       -1.0335649526       -2.8110428588
 H          3.1194497082        0.1475467214       -2.8189989895
 O         -3.4972183245       -2.5243501501        2.2388228430
 H         -4.1124438414       -2.6503254571        1.4982708308
 H         -3.5736329936       -1.5799965433        2.4731894336
 O         -5.0926429644       -2.6633232299       -0.0050730704
 H         -4.7831686395       -2.3427383766       -0.8907407487
 H         -5.5241641580       -3.5037605356       -0.1621793009
 O         -0.3750436597        0.8892174041       -2.6649157107
 H         -0.2641299810        1.8228887330       -2.3877215827
 H          0.1225954253        0.8307445869       -3.5067116159
 O          4.3307591093       -3.9352880407       -0.9945203720
 H          4.3424562713       -4.8836469004       -0.8579461723
 H          4.6347304916       -3.5401021182       -0.1606103596
 O         -2.1273481972        4.3522842912       -0.8175423049
 H         -2.7824072127        3.6014754590       -0.9115835237
 H         -2.6221612467        5.1573987793       -0.9668781125
 O         -2.5160657507        2.5718067838        3.1635780102
 H         -1.9296157052        2.2786776500        3.8761024048
 H         -1.9257082173        3.0819569877        2.5756285587
 O         -6.5740121375       -0.0468281287       -2.5782274957
 H         -5.9189708904        0.6487727838       -2.8825351343
 H         -7.3352239745        0.0315342919       -3.1521787331
 O         -6.8842775351       -0.5609430565        0.1190772879
 H         -6.8134640307       -0.2528184356       -0.8004868846
 H         -6.2755737165       -1.3166298806        0.1854563743
 O         -6.3629388728        0.9688759786        2.1821598621
 H         -6.5675939309        0.4342079949        1.3709216027
 H         -7.1737833614        1.0072207125        2.6887789545
 O          1.2965343988       -0.7177733405        4.7580776149
 H          0.8334815989       -1.3352998436        4.1494617693
 H          1.7554931432       -1.2650892833        5.3957332069
