  131
       -218.46234084
 H         -0.8663056737       -0.3480150260        1.3628865921
 C         -0.9516013655        0.6021686156        0.8274576503
 H         -1.5619515730        1.2884243105        1.4118261252
 C         -1.6124597165        0.3433203533       -0.5260220360
 H         -0.9238258934       -0.2037983885       -1.1714832965
 H         -1.8658378355        1.2865189107       -1.0097834551
 N         -2.8325547716       -0.4374985731       -0.3914590293
 H         -2.6233393106       -1.3426677643        0.0255526487
 H         -3.4725596541        0.0510096599        0.2266764843
 O          0.3285704120        1.2134107055        0.7168703428
 H          0.8824269170        0.6559900976        0.1355143408
 O         -1.5572816994        4.1742810869        2.5028281941
 H         -0.6075030848        4.0622398841        2.3392583204
 H         -1.8375673700        3.4543214751        3.0804161312
 O          4.4661688286       -0.6974497895       -1.0216310359
 H          4.8042152796        0.1263629852       -0.6085348196
 H          4.9607595834       -1.4305628140       -0.6270222271
 O          2.9731051042       -3.1687644697        3.9065628952
 H          2.3407157744       -2.4639932895        4.1037880679
 H          2.5144887951       -3.7149000019        3.2508669724
 O          0.9525867262       -1.2506860932        3.5038935984
 H          0.7238479939       -0.3318219950        3.7111640801
 H          0.1217452375       -1.6968887723        3.2538507253
 O         -4.7343837541        3.3180447859       -1.8076987922
 H         -5.3751106430        2.7300092525       -1.3571342465
 H         -4.1321804420        3.6273756906       -1.1134080554
 O         -1.3700818705       -2.5510512828        2.8701079299
 H         -1.3067853707       -3.3978574845        3.3139189755
 H         -1.7607622008       -2.7425466413        1.9869744815
 O          0.4626438916        1.4698607043        3.4666164168
 H          0.7935256027        2.3316419190        3.7293900755
 H          0.5150057093        1.4655653051        2.4901263769
 O          1.4521489172       -4.1825417353        1.7642658464
 H          2.0929930839       -3.8922223568        1.0732597313
 H          1.0829518756       -5.0128646695        1.4635581844
 O          4.9118193391       -1.7601026047        2.6764386450
 H          4.1451574844       -1.3059216118        2.2477470109
 H          4.4624479881       -2.3797885071        3.2871098263
 O          1.2091761948        3.8113759187        1.9205618335
 H          1.3832803716        4.3554728478        1.1434811415
 H          1.8664738675        3.1004420059        1.8673458018
 O          0.1650170036       -2.1162386978        0.2788792656
 H          0.5600125405       -2.7196417874        0.9227869527
 H          0.8683762611       -1.5840134845       -0.1250481734
 O         -5.2353826772       -2.6558531303        0.4344397857
 H         -5.5189175120       -2.1491675143       -0.3439340562
 H         -5.3149622500       -2.0395998188        1.1782500042
 O         -6.1541738796        1.4987508550       -0.3832119185
 H         -6.1322234007        0.6107893400       -0.7776534428
 H         -5.5266106315        1.5000153882        0.3496350690
 O         -0.8698488677       -3.7409777989       -1.5584658000
 H         -0.5505267073       -3.0978812871       -0.8853780568
 H         -1.2098202696       -3.2016398027       -2.2907748911
 O         -6.0305979843       -0.9821908487       -1.6496154457
 H         -5.2073478072       -0.8949368275       -2.1927453969
 H         -6.7428047544       -1.2014058363       -2.2499763712
 O          2.9184601481       -3.0458421371       -0.0964078000
 H          3.8704122952       -3.1979504720       -0.1447431192
 H          2.5329344453       -3.2688546938       -0.9880402204
 O          5.6354726026       -2.8163745579        0.3500619962
 H          5.4583780875       -2.4872633553        1.2662599900
 H          6.5062796038       -3.2114470994        0.3509723448
 O          1.0578110727        0.8389532752       -5.0181321048
 H          0.4051665282        1.3519898011       -4.5078688096
 H          1.9095024750        1.3150027300       -4.9078009105
 O         -1.5553341542       -2.0112586679       -3.6077641606
 H         -1.6694531280       -2.2670561706       -4.5231889190
 H         -2.3623610514       -1.4941282792       -3.3566753401
 O          1.9938065640        4.6133618782       -0.6956685779
 H          2.3813338666        3.7622193647       -0.9995815243
 H          2.3477395162        5.2920419228       -1.2700951151
 O         -3.6938028403       -0.6536765073       -2.8417310664
 H         -3.3491021217       -0.5834446342       -1.8903724087
 H         -3.6232531877        0.2559404155       -3.1936940949
 O          1.8181555300       -0.2410674231       -1.0822349911
 H          1.5033985891       -0.5291547910       -1.9771566530
 H          2.7523476763       -0.5275327691       -1.0194708305
 O          2.6976940068       -0.8717935916        1.5538183194
 H          2.7132443054       -1.5864463315        0.8894634268
 H          2.0153313515       -1.1022120724        2.2269666987
 O         -4.0119650903        1.6334269703        1.5166228176
 H         -3.5169461498        1.7167591802        2.3526542155
 H         -3.6683475642        2.3707777050        0.9620132209
 O         -5.3553840285       -0.5936811282        2.3342848200
 H         -6.2198059330       -0.3258876895        2.6485273695
 H         -4.9168164910        0.2139840159        2.0095393609
 O         -2.3038823420        1.6283338191        3.6993106289
 H         -1.3398052808        1.5065435069        3.7318556092
 H         -2.6689338983        0.7729259111        4.0124096663
 O         -3.4574093209        1.9303649149       -3.5945936181
 H         -3.9303957384        2.4753972384       -2.9000099945
 H         -3.7422267141        2.2786288598       -4.4392773472
 O         -0.6833650606        1.9864199886       -3.2937037506
 H         -1.6405629266        1.9707068649       -3.4384632335
 H         -0.5333931379        2.5338970490       -2.5062380659
 O          3.1027270605        1.7294337375        1.9679196793
 H          3.5618631794        1.6729748424        2.8079630200
 H          2.8378527532        0.8138695015        1.7378921838
 O          2.9751218506        2.2471028983       -1.5315796735
 H          3.8450307194        2.1004646918       -1.1414829003
 H          2.4549889538        1.4359271914       -1.3702156696
 O          1.0696633152       -1.1738417524       -3.4183027702
 H          1.1197485682       -0.4236225044       -4.0913724296
 H          0.1287055906       -1.4211557461       -3.4302596316
 O          3.4161014120        1.9138289825       -4.2927323835
 H          3.8424492886        1.0385314191       -4.2326246546
 H          3.2454764929        2.1827081371       -3.3773806491
 O         -2.6340825289       -3.2301323928        0.6285070622
 H         -3.6084035548       -3.1664429079        0.5278420621
 H         -2.2763873969       -3.6688986260       -0.1547282227
 O          6.3870014847        0.5391742966        2.4583059763
 H          5.9249446737       -0.3018975898        2.6292480152
 H          7.2552610154        0.4608282953        2.8522011993
 O          1.7470148525       -3.6218970002       -2.3519764503
 H          0.8352140192       -3.8921264448       -2.1207896710
 H          1.6409835701       -2.8094484848       -2.8739517147
 O         -0.3926087549        3.3229329096       -0.8978217411
 H         -0.0864992699        2.6366708992       -0.2744504404
 H          0.3070188859        3.9947235914       -0.8916329007
 O          5.1482516388        1.5755000387        0.2181853993
 H          4.3925339516        1.7857997985        0.8039179610
 H          5.8470015265        1.3171237285        0.8372166888
 O         -2.8510060059        3.6742932003        0.2068549402
 H         -2.0361221607        3.5700715743       -0.3211690644
 H         -2.5278463508        4.0702244712        1.0427053227
 O         -3.1977843758       -0.8690696299        4.1190717164
 H         -3.9986958893       -0.9404343788        3.5790743844
 H         -2.5443767467       -1.4590230157        3.7072960923
 O          4.0925129346       -0.6877397080       -3.7554688972
 H          4.3086179968       -0.7318567595       -2.8092635955
 H          3.2283587034       -1.0956921881       -3.8617715188
