  211
       -356.64189558
 H         -0.6284334389       -0.1248688487       -0.4771748917
 O         -2.4493194855        1.1344023794        0.8250584042
 H         -3.1821793997        1.6111158925        1.2600745028
 H         -1.6516677138        1.6748764874        0.9811022044
 O          0.0167146784        0.6879488524       -0.4333554568
 H          0.4260793248        0.9195304843       -1.3572544634
 H          0.8244987438        0.4734682832        0.1522556009
 O          3.6114059411        1.1843189292       -1.2277053241
 H          3.1661750287        0.8967488796       -0.4021077084
 H          4.0071159405        0.3876925028       -1.6199931649
 O          1.2631206909       -1.1608255643        6.2817920978
 H          0.7978739539       -1.9316096319        5.9233575156
 H          2.1265240862       -1.1712304991        5.8317183338
 O         -1.6052135604       -2.7794042420       -4.5285041662
 H         -2.0183977670       -3.3890530164       -3.8971748001
 H         -2.2925705178       -2.1833504056       -4.8645261483
 O          1.4051730708       -1.5408464803       -1.4766269777
 H          1.7912297778       -2.3154956268       -1.9161482172
 H          0.6973346898       -1.2422086134       -2.0764030261
 O          0.9506673123       -1.3307185742        2.7571261371
 H          0.1138658601       -0.8290932292        2.7078986428
 H          0.9476189534       -1.9040425658        1.9560101363
 O          0.6721190118       -2.8654642929        0.6519546099
 H          0.8860761938       -2.3361421777       -0.1547524219
 H          1.1385234774       -3.7139294392        0.5770866578
 O         -2.3852302016       -4.8455146057       -2.8722308523
 H         -2.5151669905       -5.5661998407       -3.4894908096
 H         -2.8795637182       -5.1043019110       -2.0488625406
 O         -2.6202029622       -0.1266043205        5.2094685529
 H         -2.9276803495        0.1463760371        6.0748524601
 H         -2.5607444469       -1.1111944900        5.2182937111
 O         -4.1438273297       -3.6262027190        0.8891227292
 H         -3.1894027295       -3.4641023287        1.0999467683
 H         -4.5766754238       -3.5466577033        1.7631045281
 O         -2.4108867203       -2.7793092822        4.9759930066
 H         -2.6241094438       -3.4262124786        5.6492458008
 H         -1.4622374467       -2.9304686870        4.7398366808
 O         -0.4165113499        2.5936519919        1.5974973918
 H         -0.4540485946        2.9095372191        2.5188600325
 H          0.5174640708        2.5829387801        1.3345673643
 O         -3.1886803178       -1.6050800897       -2.5817517783
 H         -3.7921182010       -2.3431761725       -2.3737558829
 H         -3.7035818387       -0.8133013786       -2.3969279946
 O         -1.5723978548       -0.5303423931        2.6137201816
 H         -1.9326073077        0.0658534436        1.9029339818
 H         -1.9430163720       -0.2308356996        3.4451499102
 O         -1.4493789526        3.6039534383       -0.6574997545
 H         -1.0762670344        3.4933846722        0.2432215752
 H         -1.6416265931        4.5561445931       -0.7753538972
 O          1.0424314018        3.9733406717       -1.7296499052
 H          1.2300042799        3.6873295986       -2.6381126228
 H          0.1330438715        3.6901497390       -1.5208314416
 O          4.2346282852        3.2246774768        3.6452403421
 H          4.9479594338        3.7488553609        4.0107369358
 H          4.4253432054        3.1032684547        2.6856152823
 O         -1.9690858190        6.2276924853       -1.0777257838
 H         -1.0549947647        6.5520443549       -1.1451367739
 H         -2.3298175894        6.6112620130       -0.2750932860
 O          1.9262465897        4.6015702971        2.8732147078
 H          1.8724863751        4.0490421949        2.0579064221
 H          2.6983338089        4.2576463779        3.3447263885
 O         -0.5226645101       -0.6659663724       -3.1707106138
 H         -1.0930524756        0.0509686815       -2.8299513562
 H         -1.0978605221       -1.4056996305       -3.4287466924
 O         -1.5956382151       -1.2504574954       -0.4594579778
 H         -2.0056603271       -1.4804930429       -1.3173743535
 H         -2.3456484569       -0.9430285321        0.0822078839
 O          0.1854565166       -3.0754727819        4.5550211232
 H          0.4849766459       -2.4043485735        3.8833507259
 H          0.6066774903       -3.9013730246        4.2974137737
 O         -0.4785096920        0.2819460227       -5.6860524734
 H         -1.3688141441       -0.0330356995       -5.8922054937
 H         -0.3176480044       -0.0385925949       -4.7724324711
 O          5.0312039406        0.4963997661        3.6393805656
 H          5.2010530445        0.3941495097        2.6874501637
 H          4.7815217562        1.4184088476        3.7800213568
 O         -1.3119146203       -5.4513597531        2.8536814072
 H         -1.5442841165       -4.5413704277        2.5689394283
 H         -0.3837125642       -5.4118896843        3.1223400184
 O          2.0188553225        3.1548727959        0.6421130101
 H          1.8230093210        3.4690949399       -0.2596015204
 H          2.9500886702        2.8815829009        0.6799449324
 O          1.4728175240       -5.2930810716        3.2369658526
 H          1.8726086770       -6.0914679794        3.5845244909
 H          1.5687288696       -5.3337920124        2.2562819397
 O          4.5349042212       -5.0459259261        0.7747018243
 H          4.7492645236       -4.4437877812        0.0469738388
 H          4.6023507774       -4.5429934174        1.5981705628
 O          1.9332900481       -5.2728329685        0.6267594107
 H          2.9256687841       -5.2700114846        0.6032471462
 H          1.6138968221       -5.6850662489       -0.1796870056
 O          0.0760489798        0.8997541581        5.1232664755
 H         -0.8494576620        0.6256607569        5.0999937178
 H          0.5394355027        0.2049969236        5.6527550835
 O          1.9262962191        1.4526062279        3.2172808826
 H          1.2494466603        1.1780949089        3.8613420286
 H          2.6243247976        1.9064206326        3.6923905980
 O         -4.0857610923        4.9600485337       -2.5670044576
 H         -3.6536886034        4.3817439383       -3.2221341412
 H         -3.4085163268        5.5740798754       -2.2590160192
 O         -4.8347026222        0.9014213126       -4.1231609330
 H         -5.7633700625        0.9762247494       -4.3435948816
 H         -4.7870509144        0.8538538466       -3.1472443670
 O          4.2909821938       -3.2017779597       -1.2839959182
 H          3.5594861957       -3.6194094977       -1.7697615501
 H          4.5262216516       -2.4173329405       -1.8118956972
 O          1.2783600455        1.3071569987       -2.5165579360
 H          1.3934850553        0.5385365427       -3.1026183681
 H          2.1465596965        1.3994939051       -2.0701733212
 O         -4.7282805351       -2.7527261826        3.3353195566
 H         -3.9036555436       -2.8330566362        3.8366843595
 H         -4.9353251926       -1.8102373749        3.3105463368
 O         -0.5752511793        2.9704687531       -5.4313806596
 H         -0.5650955956        2.0037565420       -5.5828639881
 H         -1.4252098940        3.1550486964       -4.9951306550
 O          2.8988499599        6.3549530623        0.8263397242
 H          3.5337417746        5.7844214344        0.3660058824
 H          2.6194853278        5.8850309703        1.6258228867
 O          4.0633205491        3.3922249019       -2.7514097792
 H          3.2780552182        3.4554004634       -3.3085939271
 H          3.9714524679        2.5663188758       -2.2478692038
 O         -1.7309426519       -3.0617599376        1.7549678706
 H         -0.9536273346       -3.0104060514        1.1596709062
 H         -1.7810711355       -2.1712777291        2.1577313643
 O         -2.9235500634        2.9757975092       -4.0682131310
 H         -2.5075089222        2.4183042686       -3.3690861970
 H         -3.6575324056        2.4418735820       -4.3961488763
 O          2.2979765115       -0.6836260576       -4.0848146376
 H          2.3765944715       -0.0405957464       -4.8294552607
 H          1.8418392684       -1.4698973950       -4.4273041192
 O         -0.0252826202       -5.3389509408       -1.5320500290
 H         -0.4182087976       -5.7965814454       -0.7721575111
 H         -0.7846623148       -5.0523419551       -2.0688390217
 O         -3.1377496524       -0.6978610165       -5.6096453945
 H         -3.6801867078       -0.1665834272       -4.9969175752
 H         -3.6581324015       -0.8153306520       -6.4045859023
 O         -5.0203573299       -3.3912971954       -1.7542093512
 H         -5.1418149295       -4.3000390026       -2.0324261567
 H         -4.8413008885       -3.4269401131       -0.8015703621
 O         -4.3424764092        2.5898578532        2.0723569442
 H         -4.6812321752        2.9589213358        1.2440839496
 H         -3.7711277875        3.2928513752        2.4551655773
 O          1.0283889801       -2.9496547191       -4.9915810884
 H          1.1351136682       -3.1463935288       -5.9221901131
 H          0.0641232747       -2.8725124699       -4.8305769027
 O          0.7427335122        6.4721645936       -0.7661472638
 H          1.5509602972        6.6700712895       -0.2505362171
 H          0.9463817641        5.6385680201       -1.2332541257
 O          2.0319004572       -3.9357026146       -2.6059423272
 H          1.7632084910       -3.7377393145       -3.5156643926
 H          1.3193819565       -4.4765452487       -2.2206036949
 O         -0.2825820863        3.4895283132        4.1516319931
 H          0.5482091928        3.9465795571        3.9342359474
 H         -0.0656836467        2.7010640840        4.6693757274
 O         -4.1250337298       -0.9166572973        0.6137847618
 H         -4.3011596542       -0.5610079810        1.5006140231
 H         -4.3239996811       -1.8666470833        0.6442925943
 O         -3.5210858795       -5.7670369353       -0.6934057393
 H         -2.7612639329       -6.1975519755       -0.2608506600
 H         -3.8338677667       -5.1047021029       -0.0519447925
 O          4.6685302073        2.7327615481        1.0747018085
 H          4.9704319684        1.8613431528        0.7762969701
 H          4.9053786570        3.4061601316        0.4115762197
 O         -1.2737735980       -6.6936852750        0.5546552394
 H         -1.2464983746       -7.6335588549        0.7317794890
 H         -1.3180199609       -6.2378501915        1.4422101438
 O          2.1583973058        0.3435950421        0.8410637980
 H          2.4934410452       -0.5707256112        0.9224008999
 H          2.1015432554        0.7319610107        1.7403139054
 O          5.3769663365        0.0418681545        0.9257893125
 H          4.6916025042       -0.6705731104        0.9023271407
 H          6.2085129100       -0.3683803298        0.6911206309
 O         -4.5754303612        0.0920650517        3.1489201380
 H         -3.9696636885        0.1450260429        3.9019433740
 H         -4.7093491624        1.0088959409        2.8543707869
 O          4.5308876966       -0.9100355332       -2.7280031284
 H          5.2159931574       -0.6931276634       -3.3600892175
 H          3.6717481042       -0.8844601352       -3.2269051635
 O          4.7445284094        4.8106367901       -0.6423893513
 H          5.4516263844        5.4038705872       -0.8960985577
 H          4.4312466965        4.3799421338       -1.4770439643
 O         -4.4585003059        0.7454281660       -1.4472479478
 H         -4.5184177142        1.6640288720       -1.0859366268
 H         -4.4436645277        0.1582865270       -0.6617832005
 O          1.7087663485        3.5966495576       -4.4012810868
 H          0.7907792770        3.3687011424       -4.7339188819
 H          1.9400508196        4.4115448625       -4.8493731533
 O          3.5473476988       -1.8859170937        0.9071637144
 H          3.7167698042       -2.3992246174        0.0896208142
 H          3.5771542166       -2.5094762598        1.6644295316
 O          3.6927310054       -3.5100391046        3.0084003887
 H          2.9129003714       -4.0537866246        3.1873043392
 H          3.6412528414       -2.7581857683        3.6444819415
 O         -0.5268286073        5.4916644153        1.4280360540
 H         -0.0832255509        5.9023056161        0.6593431815
 H          0.1399209603        5.4469616207        2.1176538368
 O          2.2159668901        1.2143341086       -5.8914031773
 H          1.3171996477        1.0256433448       -6.1898583894
 H          2.1641122773        2.0424593599       -5.3878785109
 O          3.1781726139       -1.2842324440        4.3454981302
 H          3.8899687181       -0.6342031915        4.1668113307
 H          2.4495094008       -1.0738040876        3.7340671639
 O         -4.2114405357        3.2255074915       -0.5804774913
 H         -4.3921627365        3.8958973914       -1.2778076871
 H         -3.2412334602        3.2520793519       -0.4809293276
 O         -1.9610158074        1.3835163389       -2.1752723222
 H         -1.6257993025        2.0395612448       -1.5428473261
 H         -2.8022745903        1.0597429522       -1.7912710957
 O         -2.6063629819        4.4365132947        2.8939673557
 H         -2.0212465815        4.8770738316        2.2578334172
 H         -2.0144591303        4.1465331419        3.5988519715
