  99
       -167.94154535
 O         -0.5758140609       -4.1564830509       -0.6860082896
 H         -1.5465630056       -4.2189605080       -0.6880802704
 H         -0.3145398401       -3.8177210935       -1.5586387760
 O          2.0593687217       -4.4049749795        0.3301316231
 H          1.1879209205       -4.7143253475        0.0536377332
 H          2.2333720353       -3.6095483511       -0.2089889605
 O         -0.9610893529        2.1012427718        3.7163006260
 H         -0.0244704638        2.3715227114        3.6691568883
 H         -1.2745104624        2.0118368023        2.8016859144
 O         -0.1932941806       -2.0943057870        0.9412505742
 H         -0.3369088604       -2.8957389574        0.3877801847
 H          0.4732602628       -2.3469185027        1.6055838431
 O         -1.2670928833       -0.8928193050       -3.1551857755
 H         -0.5949913695       -1.5930195010       -3.2323458795
 H         -2.1252427733       -1.3457429345       -3.2028484755
 O          3.4841620045        3.7571123257        1.9395182556
 H          2.9617793947        4.0351087197        1.1544183649
 H          3.8628827177        4.5542301280        2.3121694836
 O         -3.6191025195       -2.1979563813       -2.7000451731
 H         -4.5858198279       -2.1776658458       -2.7109925864
 H         -3.4043420045       -2.9277393332       -2.0864234691
 O          1.7109904957        2.3125088367        3.4752860869
 H          2.3608749108        2.8521582835        2.9985650761
 H          2.0736156697        1.4215678939        3.5310062480
 O          0.0364168016        3.3608735023       -3.0599374933
 H         -0.2284311381        3.8904405898       -2.2933953558
 H          0.9885569216        3.2151701245       -2.9861526867
 O          3.9869859223        0.9185970946       -1.1111754382
 H          4.5013699462        0.1350448504       -1.3468776038
 H          3.3352478651        0.6027639542       -0.4558484885
 O         -0.5897692500       -0.3834205059        4.3747903121
 H         -0.5995947668       -0.4800347758        5.3272188870
 H         -0.7655824733        0.5881726768        4.1942395132
 O         -4.0417746842        2.1617279590       -2.2426917284
 H         -4.7725298266        2.4288139106       -2.8011884246
 H         -3.2608995445        2.0302458791       -2.8570577672
 O          2.3241266641       -2.0528264003       -1.0384942885
 H          2.0987646898       -1.3621521663       -0.3861738198
 H          3.2934559847       -1.9859260061       -1.1417181517
 O         -3.2403055767        3.3581727941        0.0028847977
 H         -3.5487494052        2.9648159147       -0.8442596760
 H         -3.9350882631        3.9419881514        0.3101550313
 O          4.5171406828       -1.0528116077        1.6659120585
 H          4.6849601862       -0.0811912245        1.6745427852
 H          4.9836839864       -1.4113226519        2.4206702304
 O         -1.9823089095        1.2437701976        1.2744423487
 H         -2.3617740729        0.4497169691        1.7084430954
 H         -2.6882229513        1.8370763332        0.9871607674
 O         -3.3999300495       -0.1528680293       -0.9153554122
 H         -3.7785707490        0.6549530482       -1.2938465271
 H         -3.4542788886       -0.8214460476       -1.6256352290
 O          5.0531439282        1.5426602076        1.3910101157
 H          4.5482754792        2.3017709541        1.7240237735
 H          4.9497455441        1.5666759273        0.4285573821
 O         -3.2922063304       -3.9476873420       -0.6485403921
 H         -3.6626247050       -3.2604237305       -0.0321934326
 H         -3.8985310020       -4.6888951375       -0.6250500165
 O         -2.0146308296        1.7436248859       -3.8004920790
 H         -1.6653786907        0.8436762458       -3.7487389702
 H         -1.2640917262        2.3478594081       -3.6524277511
 O         -0.7847170876        4.4421018392       -0.6017746454
 H         -0.9623546284        5.3828401690       -0.5426384595
 H         -1.6001856981        3.9905967681       -0.3065378888
 O          0.5688862162       -2.8734533030       -2.8651512490
 H          1.0300644315       -3.3549422091       -3.5529124787
 H          1.2544283635       -2.5310213380       -2.2479381658
 O         -6.0731031813       -2.3108610749       -1.4636627265
 H         -5.7343017377       -2.2347592579       -0.5615696214
 H         -7.0285786712       -2.3156772921       -1.4058588903
 O         -4.3289383810       -1.9857983227        0.7924252878
 H         -4.0550489782       -1.2224433935        0.2375906915
 H         -3.8214907480       -1.8684242925        1.6098389685
 O          2.0260140631        4.3772276703       -0.2141326884
 H          1.0597576412        4.3967235180       -0.2286392667
 H          2.3084321551        3.9456801503       -1.0393275508
 O          2.7814797298        2.9337760270       -2.4440094813
 H          3.4178716500        3.3493096485       -3.0281699334
 H          3.2441541571        2.1802266127       -2.0210964819
 O          1.6566329560       -3.2073410436        2.6388380147
 H          1.4654791400       -3.8477544228        3.3242253766
 H          1.9552221850       -3.7221622914        1.8467804334
 O         -2.2938451369       -1.1731343751        2.3971916899
 H         -1.8527182595       -0.9852003337        3.2435844664
 H         -1.5884851222       -1.5691195167        1.8463691910
 O          4.9704713280       -1.6596907177       -0.8720678620
 H          4.8654020759       -1.4953750810        0.0999470569
 H          5.6822351442       -2.2918607497       -0.9727782814
 O          1.8955178292       -0.5234346808        3.2096827925
 H          1.0019565141       -0.4981143635        3.6075592140
 H          2.1090833694       -1.4634670673        3.1199420877
 O          1.9755778855        0.0443185739        0.4589918853
 H          1.0975991588        0.2977638877        0.0989228738
 H          1.8869044764       -0.1077280217        1.4150019890
 O         -0.3059610371        0.6397626715       -0.8322772232
 H         -0.7977641453        0.0548751091       -1.4246468796
 H         -0.9189268862        0.8510478662       -0.1080098542
 O          1.3705001182        0.2519127399       -3.3641318032
 H          1.1439096342        0.0337707476       -2.4541979272
 H          0.8438355675        1.0298874582       -3.5581423507
