  279
       -473.50883790
 O          1.9973315029        5.3174095698       -2.1341644193
 H          2.0947487165        5.5905286080       -1.2023501191
 H          1.7368636610        4.3758612194       -2.0730364966
 O          0.1904883244        0.9265264462        2.8583840871
 H          0.8987479072        1.5601199495        3.1065124107
 H         -0.5192070766        1.4998729783        2.4963637327
 O          5.3225278666       -1.7644344886        1.7606191347
 H          5.9966852728       -2.1567884461        1.1686235071
 H          5.7226230076       -0.9773081111        2.1761125991
 O         -4.3858643248       -1.8837938686       -1.2807907518
 H         -4.1216136298       -1.8670831700       -0.3363722077
 H         -5.3293023496       -2.1260997675       -1.2870481936
 O         -2.4589164420        5.4027740446        0.3514106020
 H         -3.1285507428        5.1537225297        1.0154038541
 H         -2.9335253115        5.5378885004       -0.4791149509
 O          2.1861409681        2.1239075066       -4.5393516613
 H          1.2196404844        2.0222419070       -4.4637965367
 H          2.4464293583        2.4246427031       -3.6607933310
 O         -0.9391668415       -2.5874371122        0.9463261981
 H         -0.9759605160       -3.5368461200        1.2177767434
 H         -1.0396673006       -2.5971301545       -0.0314500485
 O          2.3870349333       -3.2111495098        1.6870895468
 H          2.5564250387       -2.3244898866        2.0716355534
 H          2.0542725506       -3.0870913519        0.7733959689
 O          1.3789807578       -2.9847140471       -0.7916713071
 H          1.7677819684       -2.6744412761       -1.6141468012
 H          0.9709986714       -3.8479955963       -0.9916638879
 O         -1.4187841564       -1.8951676073        3.5561775061
 H         -1.3100278337       -1.9063854506        2.5957604446
 H         -2.3805546748       -1.9235526593        3.7428633549
 O         -1.3879860143       -1.6354608784       -5.8521497032
 H         -1.3713714496       -1.6604186442       -6.8082811338
 H         -2.0737631940       -0.9642914687       -5.6048234155
 O          5.3796874140        3.3033304239       -0.8070649739
 H          5.0797732500        4.0369978650       -1.3753493721
 H          4.7621605902        2.5640214322       -1.0061895857
 O         -4.8555002208       -5.0922303390       -1.4289622156
 H         -4.6874300422       -4.5930339376       -2.2477691119
 H         -4.0040971899       -5.5171709429       -1.2492481341
 O          1.3919727135        2.6274972546        0.8053297463
 H          1.1819924019        3.5008114910        1.1484701138
 H          2.2600089523        2.3560088796        1.1633835888
 O         -0.7026895994        3.8709367873       -1.1318991021
 H         -1.3826850619        3.2451844598       -1.4169498949
 H         -1.1542878037        4.4747200435       -0.5231728475
 O         -1.5773855543       -2.8741496546       -1.5950311047
 H         -1.1106594512       -3.0586159194       -2.4252785116
 H         -1.9722765056       -3.7341298357       -1.3440464675
 O          1.0573991021       -5.3058094825        2.8217990146
 H          1.5149888390       -4.5399964583        2.4273126543
 H          0.6705175279       -4.9746645537        3.6550402023
 O         -2.3269512236        3.1883861060        4.6106943911
 H         -1.8434977800        2.4601541926        5.0495993441
 H         -3.2496275443        2.8999358127        4.5379731338
 O         -2.6277562911       -0.3301582090       -2.4548797784
 H         -3.4060513487       -0.8312038355       -2.1421934184
 H         -1.8964189347       -0.9566064955       -2.5322004745
 O          3.6313890213        1.4614778398        1.7134514426
 H          4.3589795297        1.1758961005        1.1491941176
 H          3.2763629023        0.6622663152        2.1342825659
 O          2.3798647935        5.6115188476        0.5406894738
 H          2.9386628672        5.1226111472        1.1621440392
 H          1.4852087147        5.5758677312        0.9146823755
 O         -3.3145303996        5.2408419164       -2.3729036914
 H         -2.4523966271        5.3843324496       -2.8005820039
 H         -3.9625943841        5.2198956155       -3.0904538061
 O         -3.0459516880        0.2453419919       -4.9812553154
 H         -2.8462413060        1.1758307548       -5.1405479648
 H         -2.9334171428        0.1128619809       -4.0047674886
 O         -3.8178207656       -3.4530036775       -3.4132236401
 H         -2.9068099928       -3.6828127504       -3.6232605676
 H         -3.7986874732       -2.8720527845       -2.6252346850
 O          1.7891601512        2.7417435080        3.9247798657
 H          2.1527593481        2.1583712739        4.6204766501
 H          2.5312917145        3.1633682722        3.4562404100
 O          7.1147936737       -2.8062396221       -0.0113992416
 H          6.7788040007       -3.6788012544       -0.2827012209
 H          7.0600472780       -2.2612302498       -0.8110768880
 O          8.6821330415        2.7072030314        1.6307690532
 H          8.9638847730        2.1716101317        0.8669506732
 H          9.4689520251        3.1067553768        1.9998748987
 O         -4.8488443759        4.2110650086       -4.3913314907
 H         -5.4557348732        3.8160009099       -3.7122557691
 H         -5.3893686077        4.4105058250       -5.1547322823
 O         -3.6001301052       -2.0968715879        1.2578599617
 H         -2.6515326733       -2.2647916539        1.1130363860
 H         -4.0378596657       -2.9660450978        1.3704783488
 O         -2.3470209647        3.0381233864       -4.7673127882
 H         -1.7658055939        3.7861264502       -4.5592440775
 H         -3.2497722127        3.3873382666       -4.6786201666
 O          3.6925702522        4.2348228709        2.6454952080
 H          4.0230196972        4.9211308072        3.2259627947
 H          4.4555646272        3.6772479269        2.3988451998
 O         -7.2299056749        1.2770234259        3.2024596514
 H         -7.4197177599        1.4943190203        2.2640913151
 H         -7.9983942902        1.5370100388        3.7093847432
 O          2.6804322305       -0.8491829072        2.9179609698
 H          1.8886458980       -0.8959156888        3.4853159932
 H          3.4242512908       -0.8046786281        3.5596657380
 O         -2.1873397534       -5.3893552217       -0.8277180739
 H         -2.0471339875       -5.3766730663        0.1361997967
 H         -1.3240988108       -5.6445739241       -1.1870675973
 O         -0.2612947497        1.7237740047       -3.4837871376
 H         -1.1018941469        2.0681838746       -3.8199069086
 H         -0.3206369462        0.7485877472       -3.4619322350
 O          6.4347444280       -1.0000013621       -2.0015535264
 H          6.2291970721       -0.3816328248       -1.2580867272
 H          6.3838197066       -0.4678894607       -2.8049416076
 O         -4.6713599402        2.3782830550        3.3770240607
 H         -4.1632964643        1.6409179041        2.9805785704
 H         -5.5808605854        2.0558456037        3.4524517526
 O         -4.9365552574       -4.4139630928        1.2538152206
 H         -4.9107339902       -4.6947153413        0.3202677499
 H         -5.8436820281       -4.1089520639        1.4126158580
 O         -1.5541430595        2.7892117997        2.0973501023
 H         -1.8831235763        3.0061381415        2.9989517232
 H         -0.9975888567        3.5406516611        1.8141794519
 O         -3.1759020404        0.2877865584        2.5491750898
 H         -3.5419186426       -0.5549913197        2.2318419354
 H         -2.5370471327        0.5200768399        1.8569159064
 O         -5.9636766052       -1.0968200051        2.6144995571
 H         -6.4477172243       -0.3688182422        3.0344088851
 H         -5.5861589654       -0.7009114415        1.7914531077
 O         -7.4489551232        1.8463721456        0.5981035576
 H         -7.0028671027        2.7029960066        0.4403584444
 H         -7.9229222859        1.6284027061       -0.2399316875
 O          3.4722320086       -0.8858629009        0.0702762777
 H          3.6414462281       -1.5694770291       -0.6128480239
 H          4.1211969580       -1.1017483833        0.7731193443
 O         -2.9547475246        2.5615233963       -1.9814473005
 H         -3.5645227473        1.8932287631       -2.3309412701
 H         -3.2787952416        3.4501500856       -2.2231206837
 O         -3.2749349332        0.1676855045        5.2996800637
 H         -2.3979459179        0.3226607122        5.6674912565
 H         -3.1803784050        0.3250807117        4.3440118770
 O          4.2771357018       -5.0453973355        1.4507934423
 H          4.7470227814       -5.1006925444        2.2862650450
 H          3.6501130400       -4.2882868640        1.5342739843
 O          5.4450516292       -4.8102441339       -0.9727633437
 H          5.0925860907       -4.9837060157       -0.0808788323
 H          4.9989326477       -3.9932256580       -1.2757342288
 O          4.5015263604        5.0095389751       -2.7162566096
 H          4.8902852330        5.8731096556       -2.8518729474
 H          3.5243795915        5.1640985873       -2.5381647881
 O          7.4485024906        2.1448823824       -2.0991462520
 H          6.8257321233        2.7721351849       -1.6859082711
 H          6.9376301769        1.6979111270       -2.7964717929
 O         -6.9762748388       -0.8059321131       -3.0636251998
 H         -7.1001572211       -1.5818367241       -2.5006098412
 H         -6.4860649429       -1.1206901281       -3.8566385556
 O          3.8472968429        1.2383102666       -1.5459206999
 H          2.9903546022        1.7041152885       -1.6379337668
 H          3.7293555534        0.5121441512       -0.8987883106
 O          4.7840656523        3.2320944114       -4.8032564617
 H          4.7179260492        3.9062246897       -4.1022588165
 H          3.8854294689        3.0586037721       -5.1067823713
 O          2.2922174019       -2.1203840011       -3.4523300612
 H          2.7078680309       -1.4633900010       -4.0803580277
 H          2.1845452187       -2.9717334943       -3.9084585324
 O         -8.3419725610        1.3614661279       -1.8471321956
 H         -8.0382076631        0.5615395790       -2.3015900687
 H         -7.8862401136        2.1000425418       -2.2795367823
 O         -5.8164137588        3.9594894422        0.1470862531
 H         -5.7532782479        4.6964069386        0.7589556257
 H         -5.0037130009        3.4241604258        0.3220371066
 O         -0.8905613340       -3.7618068680       -4.0764522018
 H         -0.0098884512       -4.1363284272       -4.1883781015
 H         -1.0472994890       -3.1427381736       -4.8062588576
 O         -6.8604179189       -2.9536393450       -1.2096430968
 H         -7.1473350041       -2.9461342638       -0.2803634199
 H         -6.5489266065       -3.8477941192       -1.3916875413
 O         -0.7928353637        5.0494011216       -3.5003981253
 H         -0.6122388040        4.5997988941       -2.6372347065
 H         -0.0208795925        5.5946275952       -3.6593195615
 O          5.4896461128        0.9697338660       -3.6520546516
 H          4.8629097450        1.0547136526       -2.9012316916
 H          5.3439369325        1.7854592545       -4.1896765476
 O          1.9126172521       -4.7441340009       -4.1154889503
 H          2.1754007378       -5.1652690551       -4.9348290671
 H          2.4681863152       -5.1604669999       -3.4166646758
 O          6.2815406029        0.4989018602        3.0072351458
 H          6.0195925040        1.3702436048        2.6500410470
 H          7.2239064432        0.4043071504        2.8331255251
 O          0.8460421976       -1.3404051044        4.8319733348
 H         -0.0367933882       -1.3059773882        4.4139175269
 H          0.8864170934       -2.1965099282        5.2649724199
 O          2.3907829206        0.8029842705        5.6871406380
 H          1.7926831915        0.0594903519        5.5049947723
 H          3.2780716670        0.4302770256        5.6038272225
 O          5.9874403763        3.0123606409        1.8434435235
 H          5.7421512980        3.1813073916        0.9139762635
 H          6.9536212387        3.0911077258        1.8755257425
 O          3.3842362948       -0.2934964635       -4.9189649325
 H          2.8679105687        0.5376219060       -4.9065165520
 H          4.2690711258       -0.0298501232       -4.6127201443
 O          1.6482002946        2.6644354764       -1.8043486229
 H          0.8230159520        2.4220693669       -2.2627223716
 H          1.4240073630        2.7429475739       -0.8419713437
 O         -1.3349381556       -5.0493145133        1.7034302671
 H         -1.9968513987       -4.9896724623        2.4263770721
 H         -0.4858385369       -5.3329671284        2.1022287385
 O          4.5896722590       -0.7025876018        4.7857759628
 H          4.8139122299       -1.6490316046        4.7796348806
 H          5.3074474118       -0.2344298042        4.3287269324
 O         -0.0140953348        4.7796215753        4.2916010812
 H          0.6441139986        4.0593225159        4.3048965661
 H         -0.8500773423        4.3902785185        4.5787834391
 O         -6.3024798226        3.1852155442       -2.4563336390
 H         -5.8347235984        2.3166432591       -2.3456810922
 H         -6.1774707848        3.6542060996       -1.6162549227
 O          3.3391590810       -6.0192881552       -2.2310579220
 H          4.2042249850       -5.6779351969       -1.9261663518
 H          3.0007491727       -6.5377132731       -1.4945919551
 O          9.3445198529        1.1571959695       -0.5546470731
 H          8.6492441941        1.4806322066       -1.1780987228
 H         10.1743654931        1.2243285761       -1.0269514378
 O         -4.0125694408       -2.1724753236        4.2486787143
 H         -3.9076830613       -1.4509860788        4.8985003834
 H         -4.7186981261       -1.8752759901        3.6458833661
 O          2.1443066700       -6.5145211280        0.4872151753
 H          1.6192363063       -6.5194999224        1.2967733527
 H          2.9819590213       -6.0969087851        0.7562379808
 O          4.6210646673       -3.2970593465        3.8662885174
 H          4.8681976296       -2.8186856622        3.0467436112
 H          3.6787371706       -3.4686634733        3.8116225451
 O         -0.6915989934        1.1748513677        5.4137793439
 H          0.0957824344        1.3456204199        5.9336248960
 H         -0.3805151277        0.9340602295        4.5138578497
 O         -3.6916895422        2.4394843386        0.5382426127
 H         -3.3335661290        2.4238926919       -0.3771266887
 H         -2.9286668217        2.6066023009        1.1259955652
 O         -0.0546032703        5.0203809385        1.6849685129
 H         -0.8010910382        5.5309976868        1.3475215731
 H         -0.0274521733        5.1182375614        2.6701299551
 O          4.3124652416       -2.5387362374       -1.7877968528
 H          5.1092389244       -1.9972521181       -1.9918018079
 H          3.6685053872       -2.4130860038       -2.5099232906
 O         -0.1437520165       -0.9608299639       -3.5060283799
 H          0.7493997680       -1.3416924388       -3.4355987006
 H         -0.4619886643       -1.1637484004       -4.3968597050
 O          0.4948697841       -5.4757601012       -1.3676560764
 H          0.8527184801       -5.7269685483       -2.2214221314
 H          1.0505263842       -5.9071604017       -0.6825082915
 O         -4.2662675230        4.8229577195        2.3393213136
 H         -4.4102082192        3.9016212260        2.6533573874
 H         -4.0414997322        5.3336540886        3.1169358708
 O         -5.2211898515       -1.5801848964       -4.9148332426
 H         -4.5617966884       -0.8850844194       -5.0496423611
 H         -4.7552300285       -2.3275369880       -4.5027244886
 O          6.0634100769        0.5747544359        0.1123155563
 H          6.3700120030        1.4281077385       -0.2071957544
 H          6.8042376761        0.1942865110        0.6301019059
 O          8.2076354669       -0.5707440516        1.2624182101
 H          8.8206144263       -0.1193788042        0.6627053430
 H          8.1461617915       -1.4880883605        0.9653389848
 O         -0.4093086854       -4.0894616132        4.7371159999
 H         -1.1395942623       -4.6527448629        4.9991927926
 H         -0.8219800813       -3.3271251974        4.2725675690
 O         -3.2805934165       -4.7158545153        3.4906259825
 H         -3.9680191629       -4.8744296844        2.8279926437
 H         -3.5196674586       -3.8643609983        3.8931474588
 O         -5.1088066663        0.8685283815       -2.1679145852
 H         -5.0911203507        0.5655796230       -1.2366708098
 H         -5.7390858555        0.2575942960       -2.6054353929
 O         -7.3198480583       -3.0704672599        1.5002773177
 H         -8.1450085384       -3.2129214823        1.9625769986
 H         -6.8570459624       -2.3178149654        1.9479808310
 O         -5.2805146309        0.3140457662        0.4712652563
 H         -6.1298756502        0.8066466139        0.5145285235
 H         -4.5885192216        0.9826203658        0.6614217341
 O         -1.8806971161        0.4150998053        0.2098494057
 H         -0.9162650355        0.2858049214        0.1287438683
 H         -2.2136698270        0.2536772916       -0.6801590448
 O          0.7303251244       -0.0397800565       -0.2390510099
 H          0.9135752940       -0.9821480098       -0.1817616633
 H          1.0848539352        0.3658640635        0.5573154079
 O          5.1690907178       -2.6153856379       -4.8267062330
 H          5.8412397113       -2.2111570056       -4.2748941379
 H          4.6179208228       -1.9074409418       -5.1738911082
