  270
       -458.30638517
 O          0.2873290512       -0.9884298866        1.2177264737
 H          0.4309812074       -1.2905377335        2.1304383404
 H          0.3171490946       -0.0076583323        1.2392283248
 O         -0.0030319756        1.6116339778        1.0849468226
 H          0.2125811753        2.1675412251        1.8557702435
 H          0.6618611393        1.7795425471        0.4095580604
 O          0.1979774956        1.0973241627       -7.1374010880
 H         -0.2074715916        1.2260748577       -6.2574079052
 H          0.7566078768        1.8616934669       -7.2873276916
 O          0.7623209442       -1.9942407599        3.6721043896
 H          1.7100316396       -2.0872097166        3.8523014969
 H          0.3598911941       -1.5923906356        4.4708478444
 O         -1.9268040070        5.8116100764       -1.9061495971
 H         -2.3484026122        6.3078937263       -1.1930621515
 H         -1.8420820765        4.8849905345       -1.5384313844
 O         -0.6702810810       -1.3190753548       -3.5977694467
 H         -0.5062470681       -2.2461338533       -3.3902234537
 H         -1.3801042078       -1.3355962675       -4.2739835167
 O          2.0501665554        0.5738775585        2.7416543878
 H          2.2633380430        1.4011153671        2.2741867673
 H          2.5909945154        0.5411115648        3.5499512266
 O          0.5991632386        3.2047831655        3.1780723234
 H          1.2036831214        2.9313059161        3.8931375627
 H          0.7925349173        4.1385428136        2.9802752062
 O         -4.1949058704        1.1333762430       -0.5200557829
 H         -4.9365787800        0.8384428283        0.0414882848
 H         -3.5101314141        1.4408744376        0.1122068466
 O         -0.5132603574        2.1802542530        6.2470685322
 H         -1.2042520879        1.5938611301        6.5780633574
 H         -0.9786781091        2.9120350261        5.8154320422
 O         -0.1887696417        1.1471156128       -4.4941139917
 H         -0.0866925461        0.2102171738       -4.2701385437
 H         -0.9080091992        1.4617216652       -3.9099304039
 O         -0.3638737715        0.4536530686       -1.5501682914
 H         -0.5182309358       -0.1942719046       -2.2570589446
 H         -1.0569406884        0.3144813773       -0.8750106575
 O         -2.5950984342        2.2152491067        1.4294200212
 H         -1.7362176268        1.8185022127        1.1922041960
 H         -2.8486275495        1.8297865211        2.2847875337
 O          2.6772477872        2.8366735260        1.3099548975
 H          3.2742261581        3.5755350238        1.5474548332
 H          1.9421153455        3.2583980274        0.8297375788
 O         -2.1293307239       -0.3014604732        0.3518860573
 H         -2.8497217456       -0.9484101978        0.3658644292
 H         -1.3686503551       -0.7063988758        0.7973492174
 O          1.8708888709       -2.9343604750        6.8753470001
 H          2.5569510148       -2.6590008405        6.2551300155
 H          1.7528089483       -3.8757394053        6.7243468936
 O         -2.2879357115       -1.2450279993        3.3704891086
 H         -1.9304904686       -1.8048327630        2.6531705058
 H         -1.6542399859       -0.5117866190        3.5105643737
 O         -0.4770763735        0.6435624313        3.8481947175
 H          0.4062251071        0.6198226636        3.4440240722
 H         -0.4076712624        1.1289732135        4.6795601717
 O          3.9011094522        0.7028494829       -5.7274727391
 H          3.2819004090       -0.0085062072       -5.9495316118
 H          3.3328856286        1.4906874420       -5.6051955317
 O          3.5418519599        0.2057065013        4.9548588367
 H          4.3769359594        0.4206028646        4.4930761453
 H          3.4914745724       -0.7581360359        4.9961493106
 O         -4.1462086010       -2.1570458069        0.2463351139
 H         -4.8923137090       -1.8468081831       -0.3060894359
 H         -3.8773481672       -3.0342444224       -0.0732588902
 O         -3.3246261379       -0.7601346094       -2.2733185789
 H         -3.7083700748       -0.1929703168       -1.5712693786
 H         -2.6008385749       -1.2555778661       -1.8406109900
 O         -3.8547986025        4.9015822835       -3.4787264342
 H         -3.0956787236        5.2659777262       -2.9510855227
 H         -4.4210187632        5.6421942185       -3.6907352768
 O         -4.0261003309        0.6827950873       -5.4081357809
 H         -4.6733132743        0.7092928353       -6.1130246745
 H         -3.5280934332        1.5214463614       -5.4663669581
 O         -4.5742435273       -3.1404820732       -2.6564461006
 H         -4.1781856549       -3.7148114506       -1.9832639799
 H         -4.1659071568       -2.2489303190       -2.5510593222
 O         -2.4247374264       -1.5737369740       -5.5813840599
 H         -3.0351697998       -0.8208002751       -5.5186819488
 H         -2.9210510976       -2.3824232271       -5.3730942060
 O         -0.3033726600       -1.5026022862        6.0789878126
 H         -0.9935458198       -2.1938259054        6.0091158870
 H          0.4377776222       -1.9051946441        6.5650159089
 O          2.0701597527        2.5523799924        5.3402763927
 H          2.5981149191        1.7432264025        5.3932212682
 H          1.2878563876        2.4137580855        5.8966700160
 O          2.4151154008       -5.9688210735        2.0206537214
 H          3.3238878188       -5.7172749114        1.7955593931
 H          1.8789422812       -5.1788235573        1.7736124572
 O         -2.1324196172        3.4523933601       -0.9023241722
 H         -2.9829292504        3.5033098538       -0.4370149838
 H         -2.2002323173        2.7547211564       -1.5748341654
 O          3.3693754989       -2.5972783938        4.4615213379
 H          3.0375601986       -3.5353634814        4.4863019675
 H          4.1718853226       -2.6116792990        3.9293706446
 O          2.1223713464        0.9074423353       -0.7255696167
 H          2.7595577347        0.1735746983       -0.7932995808
 H          1.2694987589        0.6016661184       -1.0924199017
 O         -1.5424821255       -3.0824929659        1.5349273822
 H         -1.6720816671       -2.8747977865        0.5920648956
 H         -2.1714321959       -3.8042509145        1.7435447076
 O          5.7150225639        1.7244556434       -1.2989813811
 H          5.4326260228        2.6443022448       -1.3676954295
 H          5.2800427665        1.2429176949       -2.0250489642
 O         -0.6597103593       -6.1888104174        2.1231135930
 H         -0.7157878300       -5.8246345373        1.2126012601
 H          0.1986513653       -6.6144444139        2.1864727900
 O          2.0269547015        6.3508170183        0.4997586959
 H          1.4819926269        5.5571348017        0.2785240417
 H          2.3647283632        6.6476790581       -0.3581613454
 O         -5.3132943928        2.8958378151       -2.1477502690
 H         -4.7138459491        3.4847703359       -2.6299820993
 H         -4.7681513120        2.2671385085       -1.6180338420
 O         -0.2915579844        4.0556239995       -4.6743343284
 H          0.5219989723        3.7154453597       -5.0754968496
 H         -0.2763587676        3.6897094650       -3.7587039038
 O          3.8348630625       -1.1834674745       -0.8587001951
 H          4.7237801847       -0.9053739601       -0.5863328942
 H          3.4224028478       -1.5016265002       -0.0223352435
 O          2.8811858789        6.4480801826       -2.0974417283
 H          1.9832604635        6.2903593985       -2.4879592364
 H          3.2849985124        7.1199821392       -2.6456030812
 O          2.0641139199       -0.7946871687       -3.1980354477
 H          1.8407233887       -0.6184563352       -4.1310537383
 H          2.9624804034       -0.4377193854       -3.0604502499
 O          0.4787139377        6.2525266511       -3.1753026848
 H          0.2929872312        5.5922301386       -3.8639142999
 H         -0.3098838400        6.2215025835       -2.6076794788
 O          2.2769639964       -4.9881192238        4.5786330340
 H          2.4487897447       -5.4956666306        3.7632080366
 H          1.3065338551       -4.8424084449        4.5664234749
 O         -1.5652194137       -2.5716755822       -1.1919019545
 H         -1.5898787748       -3.2466286754       -1.8869123103
 H         -0.6192579470       -2.3225363082       -1.1335032786
 O         -0.5782899475       -5.1872060827       -0.4025335653
 H         -0.0836175932       -4.3989152173       -0.1305460972
 H          0.1137690028       -5.8079601476       -0.6985591316
 O         -3.3670254631       -4.6831221297       -0.6082589981
 H         -2.4190154620       -4.8673190684       -0.7089672469
 H         -3.5788009369       -5.0074462476        0.2820909896
 O          4.4642756601        4.3986541150       -1.0498069815
 H          4.0134274098        5.1757463762       -1.4196382432
 H          4.4936000856        4.5397818855       -0.0942930731
 O          1.7678870561       -6.4591216673       -0.7361392630
 H          1.9874937524       -6.7861295410        0.1444880614
 H          2.2404113537       -5.5964342234       -0.7951747178
 O         -3.4725504732       -4.0218553960       -4.8345151557
 H         -4.0604839207       -4.6069785610       -5.3093224033
 H         -3.9674572156       -3.7042604706       -4.0273306863
 O         -1.7189812356        3.7601345287        4.3531936615
 H         -0.9205962462        3.4583345741        3.8542178138
 H         -2.0593540344        4.4935430448        3.8349574301
 O          2.2650510383       -3.3726824820       -3.9791515296
 H          1.9454398113       -3.3828068675       -4.8848622351
 H          2.0460533737       -2.4814974164       -3.6255779575
 O          0.6401741240        5.8943293761        2.8516085533
 H         -0.2414603182        5.7051480390        2.4956473423
 H          1.1378102675        6.2896179979        2.1217062013
 O         -6.1576655771        0.2664941959        1.1385874111
 H         -6.5807466566       -0.2934636860        0.4780022086
 H         -5.7794058254       -0.3361700409        1.8140767255
 O          4.6190110958       -2.9959963533       -2.6695064374
 H          4.3154883734       -2.2277244548       -2.1353207470
 H          3.9537002989       -3.1429650962       -3.3597677124
 O          1.6167208481       -0.8428906516       -5.8765545493
 H          1.0953728278       -1.6621781816       -5.9565107537
 H          1.1410657479       -0.1907271458       -6.4299594782
 O          1.0550421055       -2.1455607293       -1.0273231566
 H          0.9412229008       -1.6421740748       -0.1890173165
 H          1.3797624824       -1.5394440641       -1.7128389522
 O         -1.0752053726       -4.0451891497       -3.4630018990
 H         -1.8677672437       -4.3186134959       -3.9462315838
 H         -0.4696365641       -4.8125405642       -3.3670294800
 O         -0.3164427744       -4.4075206190        4.1309800632
 H         -0.5064833162       -4.9952282622        3.3730841439
 H          0.0074635405       -3.5544514568        3.7673142179
 O          0.9345550340       -5.7451396365       -3.3355388335
 H          1.2479726821       -6.2208360827       -2.5580543026
 H          1.5590094831       -5.0159497568       -3.4867443234
 O         -4.6330051297       -3.9291178234        4.0216276549
 H         -3.9367874610       -3.7003790072        4.6642285797
 H         -4.9128980538       -3.0793936143        3.6292445531
 O         -3.4167748603        6.4075241086        0.3665851198
 H         -3.9402693330        7.0263463255        0.8737540719
 H         -3.9545458992        5.5811860248        0.2866401709
 O         -2.3502047701       -3.0641318762        5.2867743281
 H         -1.7269378473       -3.7282576384        4.9333727166
 H         -2.3854804746       -2.3575529062        4.5933628587
 O         -4.8757964453       -1.5255186345        2.7178895257
 H         -4.6240602368       -1.9018429243        1.8479560513
 H         -4.0346156960       -1.1744162890        3.0665152982
 O         -2.4775328622        0.1733403123        6.1674905813
 H         -1.6603351091       -0.3441392742        6.0499222096
 H         -3.1466561107       -0.4508669736        6.4500825680
 O         -5.4806732237        2.6996341029        2.3432693329
 H         -4.8263989350        2.3676283408        2.9771365190
 H         -5.8848435508        1.9121744208        1.9530556740
 O         -1.6298603847        4.7258155066        1.6859151967
 H         -2.0339594117        3.8300719041        1.5772366880
 H         -2.1950133845        5.3356053071        1.1896801016
 O         -3.2815634104       -5.0509162513        2.0795843928
 H         -3.8561627431       -4.7107118802        2.8168085874
 H         -2.7325876412       -5.7548384681        2.4351360355
 O         -5.9508468145        0.4574596507       -3.2508310156
 H         -5.9114267643        1.3699296165       -2.9137651082
 H         -5.1892859189        0.3546339025       -3.8364092335
 O         -4.6144088665        4.0788777645        0.2419280419
 H         -5.1856638382        3.7779463626       -0.4816882042
 H         -4.8991527008        3.5945280894        1.0535658786
 O          0.5760657442        4.1821974514        0.1246825581
 H         -0.2504249872        4.2951808749        0.6316885631
 H          0.3035597207        3.8514304738       -0.7591676884
 O          2.0468356754        2.5444388741       -5.0196036295
 H          2.4748974235        2.7127919337       -4.1609859351
 H          1.3119364799        1.9329663842       -4.8044251406
 O          6.4957016182       -3.8143311149       -0.8032773397
 H          5.9549489995       -4.2660130110       -0.1304550072
 H          5.9387298081       -3.7262119855       -1.5918221970
 O          4.6319336041       -4.4706468612        1.1686068378
 H          3.9465342996       -4.1947838953        0.5207085867
 H          4.8414577120       -3.7036720111        1.7096127335
 O          4.5497165843        0.9142880393        0.9679288897
 H          5.0977913421        1.1731805043        0.1996634938
 H          3.7958566027        1.5313904048        0.9560622706
 O          0.2142227952        3.0509993326       -2.2538110823
 H          1.1837961007        2.9787179747       -2.3825525881
 H         -0.1041875797        2.1559949013       -2.0256122338
 O          6.4074309462       -1.3464201966        0.0667347848
 H          7.1172425561       -0.7804952416       -0.2330075639
 H          6.5605516243       -2.2577406863       -0.3002105283
 O          1.0751983163       -3.7712053964        1.3732807830
 H          0.1896411503       -3.4240045384        1.5879848268
 H          1.6937366431       -3.0280958515        1.4603602995
 O         -2.7978189680        3.1249149955       -5.2417161916
 H         -1.8631146228        3.4157573269       -5.2143693365
 H         -3.2764621219        3.8257204729       -4.7657458312
 O         -0.0054601031       -3.0356621218       -5.9038354747
 H         -0.7833657829       -2.5401840309       -6.1895805409
 H         -0.2858333825       -3.4831565962       -5.0878169527
 O         -6.2420207618       -1.3134019893       -1.2478496099
 H         -6.3562247102       -2.1182123188       -1.7610507983
 H         -6.1244774522       -0.6066208065       -1.9243197607
 O          2.9239988622       -1.7175694806        1.5586168793
 H          3.8087730967       -1.7567920966        1.9647725452
 H          2.5366584219       -0.8674419444        1.8560049801
 O         -3.4064891392        1.6787547519        3.9638910803
 H         -2.8621226333        2.4574448827        4.1923750667
 H         -3.1574220502        1.0059557371        4.6141585019
 O          4.6399889096        0.0870967454       -3.2883087666
 H          5.2283688589       -0.6663090143       -3.3663403480
 H          4.4686515871        0.4047071846       -4.2134455471
 O          2.8509633453        2.7083538503       -2.4491528311
 H          3.4215456662        3.3449922769       -1.9906607829
 H          2.6996729769        1.9734469137       -1.8011750473
 O         -2.3532162216        1.6854427408       -2.9782643368
 H         -2.7831191936        2.1359142387       -3.7201258725
 H         -2.7455411319        0.7978096439       -2.8700273688
 O          5.6044759398        0.7013046520        3.3099899411
 H          6.2244715808        1.4192754889        3.4283599502
 H          5.1959185751        0.8276681438        2.3975388834
 O          2.9035982063       -4.0611034477       -0.8266814211
 H          3.5141739184       -3.8543427261       -1.5549551847
 H          2.1964861227       -3.3760491436       -0.8508007337
 O          3.0217213550        5.0311049906        4.2677709201
 H          2.1849533101        5.4736088741        4.0795454599
 H          2.8065973949        4.2228866553        4.7532425550
 O          5.4371782228       -1.9132273213        2.5185319708
 H          5.8597187085       -1.7490808995        1.6492489178
 H          5.6076775778       -1.0871521741        2.9997401468
 O          4.0456138677        5.0659491828        1.7377497438
 H          3.3720969510        5.6652343797        1.3471489561
 H          3.9025124074        5.1201775841        2.7002333065
