  116
       -193.00689382
 H          2.9754626794        1.3428196515        0.5338095199
 C          1.9999211432        0.8670762447        0.4753817530
 H          1.3752988873        1.2182579302        1.2998369608
 C          2.1452233913       -0.6471318879        0.5477453621
 H          2.6657193238       -0.8992060952        1.4766174641
 H          2.7505856143       -0.9924427006       -0.2917494570
 N          0.8272345359       -1.2617819142        0.4276175560
 H          0.8871201155       -2.2667448819        0.5848287035
 H          0.2004430173       -0.8843034955        1.1305975542
 O          1.4247351647        1.2655712001       -0.7554455950
 H          0.4746535609        1.0119482787       -0.7225586408
 O          5.3445979080       -1.6243749035       -0.2870385199
 H          5.1904987589       -0.9296872426        0.3671075024
 H          4.7984280405       -2.3774975688       -0.0098343900
 O         -2.1286421769       -2.4995892207       -1.7241923206
 H         -2.0755901196       -2.5644806211       -0.7489314689
 H         -1.2869401620       -2.0668184771       -1.9942443202
 O          0.3929304603       -4.1205557399        1.0839492171
 H         -0.5353613327       -3.8477558619        1.0651849418
 H          0.5629065264       -4.6031640068        0.2439100466
 O         -1.6937329512       -5.0781417388       -2.3672222840
 H         -2.3591928553       -5.5745256576       -1.8904235094
 H         -1.8974255372       -4.1285166844       -2.2194421131
 O          4.4549916376       -1.5388041966       -2.9005706036
 H          4.9276340790       -1.5825860786       -2.0496510301
 H          4.0848079659       -0.6447983349       -2.9503278462
 O          5.1703498491        0.7145051526        1.3761857809
 H          6.0637285613        0.7679596695        1.7191584366
 H          5.1551081595        1.2322974525        0.5453339413
 O          3.4512841143       -3.5348925535        0.4102291316
 H          3.4074146190       -4.4885763726        0.3188674100
 H          3.0839868485       -3.3376985579        1.3000355756
 O         -6.3633432696       -1.3791754220       -0.3252087370
 H         -5.6975757357       -1.1748958829       -1.0082142413
 H         -6.9895475926       -1.9736527475       -0.7385156071
 O          2.2290048804        3.5892709311        2.2461128993
 H          2.7254158735        3.7837599526        1.4042785230
 H          2.3430445394        4.3647517713        2.7970681121
 O         -4.2877030778       -0.9161999783       -2.0871392424
 H         -3.5649778913       -1.5734063816       -2.1556375468
 H         -4.0353536834       -0.1541850224       -2.6563729509
 O         -0.6099352035        1.0204064160       -3.0916266453
 H         -0.8739189201        1.3356702703       -2.2088184151
 H         -0.2851539009        0.1090057960       -2.9214761484
 O         -3.3329486973        3.3742890035       -1.4513628318
 H         -3.8850944216        4.0780868679       -1.7924476533
 H         -2.4378437360        3.7787674208       -1.3033704340
 O         -0.3518590119        3.2220532643        1.3679983485
 H          0.5573845614        3.3526048255        1.6920671285
 H         -0.9018626475        2.9860841651        2.1294892384
 O          3.1534152206        1.2011937658        3.3709425045
 H          3.8566995304        0.9385416292        2.7595100936
 H          2.8158184037        2.0489551466        3.0353302275
 O         -2.2452674625        2.0912953648        2.9235483453
 H         -2.8020593195        2.1341411756        3.7043804012
 H         -2.8689276437        2.2128387653        2.1640861252
 O         -1.9787257038       -2.7262651537        0.9974263280
 H         -1.7044586530       -1.9452219167        1.5017670830
 H         -2.9131608597       -2.8602988666        1.2244195518
 O          3.4845957584        4.1655681935        0.0109186332
 H          4.1040134944        3.4938899335       -0.3140871159
 H          2.7851025030        4.2293024676       -0.6654902603
 O          1.2339975491       -0.6244308830        3.8115169519
 H          1.9331308213        0.0472440145        3.6278189769
 H          1.2807963250       -0.7976817271        4.7527216357
 O         -5.0981645160        1.7081903822        3.3948844350
 H         -4.9204556163        1.9860314602        2.4785318677
 H         -6.0487714916        1.6357753687        3.4810741975
 O         -1.2888472684       -0.4612657863        2.6290716300
 H         -1.5394621254        0.4812737616        2.6667739158
 H         -0.4635685849       -0.5474820355        3.1334046936
 O          0.2216450860       -1.3287361466       -2.1491698968
 H          0.9299530559       -1.9581486657       -2.3863135428
 H          0.3753493302       -1.1936899167       -1.1698031381
 O         -1.0446961087        4.5541357638       -0.9125873748
 H         -0.2057989705        4.3992217053       -1.3823022413
 H         -0.8645842498        4.2504396236       -0.0076783496
 O          1.4382786355        3.7695970814       -1.7716820240
 H          1.3879615138        2.9060389146       -1.3131070351
 H          1.5208641682        3.5393138934       -2.7089099892
 O         -3.3515308481       -0.1822484940        0.2688245366
 H         -3.7145063658       -0.3800113377       -0.6272536167
 H         -3.6712381832       -0.9203852585        0.8227239918
 O         -3.9425588894       -0.8162349480        3.6847833678
 H         -3.0120144609       -0.7505022820        3.4214656134
 H         -4.3128872803        0.0811453642        3.6430370825
 O          2.2285468570       -3.1283198381        2.7898367147
 H          1.4862662128       -3.6053909326        2.3753625150
 H          1.8591225233       -2.2945931122        3.1151620378
 O          3.2841985476        0.9849131711       -2.6614269639
 H          2.8407993763        1.4913526405       -3.3617992581
 H          2.5836323663        0.8538646843       -1.9915283502
 O         -4.5761495138       -2.2755373096        1.5384445345
 H         -5.3739530753       -2.0102418149        1.0483948015
 H         -4.5850137332       -1.8482745111        2.4186678183
 O         -3.3710878394        1.2663041060       -3.3123547251
 H         -3.4134206064        1.9764066777       -2.6504917231
 H         -2.4251420743        1.1192421164       -3.4728062105
 O         -4.0211329076        2.2494901060        0.9487285191
 H         -3.8811904286        1.3071234924        0.6820408590
 H         -3.8313644237        2.7539678282        0.1360315891
 O          2.3434131929       -2.9938214238       -2.1231309804
 H          3.1017885534       -2.5785482835       -2.5878030314
 H          2.6581833136       -3.1203452347       -1.2119631688
 O          0.8275605599       -5.2213951590       -1.3168452364
 H         -0.0395687003       -5.2691832809       -1.7614355180
 H          1.3390925748       -4.5674383879       -1.8144073615
 O         -1.1805424274        1.2611575608       -0.4381228325
 H         -1.0675510905        1.9794796182        0.2041036599
 H         -1.8800233300        0.6681995556       -0.1088278201
 O          1.4268503793        2.3586906545       -4.1368837159
 H          0.6485684444        1.8566161616       -3.7803779901
 H          1.2748674173        2.4568727114       -5.0763515604
 O          5.0511809250        2.0704253144       -1.0041127568
 H          5.8893721636        2.1154533963       -1.4658810595
 H          4.4139733835        1.6562464652       -1.6412970822
