  387
       -651.64624888
 H         -1.9907612304       -0.6964835462        0.3615307766
 C         -2.7653417717       -0.1044131941       -0.1264088293
 H         -3.6818941408       -0.6835741994       -0.1640094800
 C         -2.3503999076        0.2443354223       -1.5438384625
 H         -3.1009551523        0.8778408057       -2.0121378470
 H         -2.2565632080       -0.6703457614       -2.1219205332
 O         -3.0555682930        1.0366588251        0.6609421306
 H         -2.2626092652        1.5953436867        0.7379663050
 N         -1.0659764630        0.9568377073       -1.5371585130
 H         -0.3508285432        0.4533156952       -0.9669453242
 H         -1.1768706074        1.8982161289       -1.0938963796
 H         -0.7415301453        1.0564485433       -2.5314928003
 O         -0.6484328761       -1.7752766528       -3.5276418673
 H         -1.1456911119       -2.3325541918       -2.9043446117
 H         -0.4016019004       -2.3559733572       -4.2658105413
 O          3.3009917250       -0.4183688026       -0.0428100838
 H          3.4491889779       -0.9840870677       -0.8224697482
 H          2.3456215600       -0.2363138491        0.0226758560
 O         -0.3531627432       -6.2823787174        0.3600010188
 H          0.5722636184       -6.5631381751        0.4491087316
 H         -0.4192001887       -5.8917936200       -0.5358396117
 O          1.6888728573       -0.8566064833       -5.3155162922
 H          2.5157734015       -1.3422682982       -5.1089002603
 H          1.9650601517       -0.0114428777       -5.6851738755
 O          0.2018474052       -2.2479450567        1.2713854630
 H         -0.6438642880       -2.7059545551        1.0910686819
 H          0.1475833646       -2.0612715130        2.2342194976
 O         -0.5996533787        0.7868331735       -4.1021038395
 H         -0.6188886317       -0.1938000418       -4.0232765916
 H         -1.4015496805        1.0537310853       -4.6086809508
 O          2.2570786456       -3.7369702562        0.5997545133
 H          2.9350733232       -3.2897376186        1.1340051814
 H          1.4110839257       -3.3490873775        0.9193799662
 O          1.0949804678        4.2402439610        0.2033154347
 H          1.6511770965        3.5349791949        0.5794872258
 H          1.6795588656        4.7317792413       -0.4061768574
 O         -1.3181505192        3.0944651957        0.0195721385
 H         -0.4460092038        3.5231700566        0.0771117471
 H         -1.9713839664        3.8248709148        0.0390353975
 O          0.6647837045        0.1232823091        0.3535178944
 H          0.4891203011       -0.8045451814        0.6490331423
 H          0.3791336189        0.6783398184        1.1004892596
 O         -4.7813254803       -2.6357249434        1.0886707200
 H         -5.4794114077       -3.3078261320        1.2006094681
 H         -4.7181399565       -2.5064775619        0.1142960806
 O         -0.2100847195        3.5250529220       -2.5689804840
 H         -0.1802414214        4.4456242480       -2.2198505216
 H          0.5591855795        3.0468827327       -2.2068558023
 O          1.7649405928       -0.4983133271       -2.5799583991
 H          2.7312538247       -0.3637156577       -2.6582827301
 H          1.4383557646       -0.6199922851       -3.4895634447
 O         -0.6240040324        0.4696692113       -7.2599605425
 H          0.1151328047        1.0096662018       -6.9272662604
 H         -0.3944411619       -0.4422644137       -7.0711755312
 O         -4.6160083259       -2.3323494811       -1.5050284894
 H         -5.0463208774       -1.5802121078       -1.9679030150
 H         -5.1361971454       -3.1279759956       -1.7219346834
 O          2.3226426297       -4.3114032958       -4.1304177973
 H          2.4212299303       -5.2433394208       -3.9232899203
 H          2.0154409418       -3.8823026429       -3.2978149345
 O         -2.5564594977        6.3969560346       -3.4537787031
 H         -2.7004491084        5.8187654912       -4.2122788748
 H         -3.2831665961        6.2175466726       -2.8345455747
 O          1.4139575679       -3.1147494088       -1.9039550417
 H          1.8326529197       -3.2775463339       -1.0402394974
 H          1.4090003917       -2.1531766462       -2.0676820146
 O         -0.4464107120        1.5302080331        2.4571506666
 H         -0.7962769562        1.0948927995        3.2672488597
 H         -1.0591384306        2.2742928680        2.3039081273
 O         -3.7748249277        1.4438823339        3.3700571173
 H         -4.6917339056        1.7540121448        3.4763263828
 H         -3.2689028931        2.2248642738        3.0936476068
 O         -4.5744016367        2.8110164224       -0.6014409881
 H         -4.0254056960        3.1223494430       -1.3436559965
 H         -4.0512663038        2.1307173313       -0.1277232612
 O         -2.2517316106        3.5747064093        2.6196518196
 H         -1.6600599438        4.1119180715        3.1894642927
 H         -2.5891789883        4.1629891040        1.9314988305
 O         -5.8423524586       -0.3372567713       -2.6437148132
 H         -5.4236456713        0.3660719109       -3.1892662161
 H         -6.3143031710        0.1553523048       -1.9391416386
 O         -2.9557547191       -5.8649592020        0.9334604686
 H         -3.2556589055       -5.8783965619        0.0064687299
 H         -2.0831072724       -6.2871565971        0.9100730596
 O         -8.2686505839        1.5850831558       -3.3430262859
 H         -8.7553182248        0.8146301672       -3.0089410559
 H         -7.7046009084        1.8290499944       -2.5877006575
 O         -5.4427711276       -0.1989247416        1.7569255753
 H         -4.6486196743        0.3510042161        1.7591007820
 H         -5.1764468559       -1.1032119846        1.4635877266
 O         -4.9235593947        1.8278400538       -3.8078331169
 H         -5.5438385263        2.5074051070       -3.4977791234
 H         -4.0522891150        2.1553903167       -3.5495153398
 O         -2.6044972090        1.4368068484       -5.6901246642
 H         -2.0542026619        1.1439749945       -6.4419402199
 H         -3.3453292821        0.8058999539       -5.6143783502
 O          4.1160541082       -2.1655669274       -1.9001681050
 H          4.9536739890       -2.0841093013       -1.4025016090
 H          3.9309550094       -3.1267994616       -1.8952028455
 O          3.9359078383       -2.1536128214       -4.6018653132
 H          4.0935715477       -2.0438394772       -3.6406056681
 H          3.5896295947       -3.0558071376       -4.6776690130
 O         -0.3056752186        6.1021837013       -2.0735916466
 H          0.4618212619        6.2532461597       -2.6463002565
 H         -1.1088472732        6.2982820506       -2.6101393739
 O         -6.7007658566       -4.5557243996        1.1777277177
 H         -7.3956969165       -4.0413974745        1.6124994527
 H         -6.2010797534       -5.0189442174        1.8823949757
 O          5.4350729031        4.4492419480       -1.7276805351
 H          5.4962366419        4.1595113384       -2.6677886064
 H          6.3521805569        4.5175879608       -1.4168635163
 O          1.7578462901        1.9804906864       -1.6632505099
 H          1.6747937554        1.0455667218       -1.9513277233
 H          1.9938778312        1.9647014153       -0.7252424369
 O         -1.2073329669        7.0807483690        0.3245025693
 H         -0.8027265162        6.8635816346       -0.5336437432
 H         -0.5099538504        6.9587242084        0.9878170750
 O          0.0030671768        4.2904909051       -5.1115580349
 H          0.5679039094        5.0655977082       -5.0514491693
 H         -0.0648733931        3.9517436458       -4.1852929712
 O          4.6935690036        2.1226332969       -0.7432643320
 H          4.3686091010        1.5954097213       -1.5038390366
 H          4.9209515371        3.0113108932       -1.0955589468
 O         -0.2641762944       -3.5165181521        5.6452056805
 H          0.6242271928       -3.7511917565        5.3377604251
 H         -0.8672007147       -4.1982286060        5.3086774333
 O         -1.7732502829       -4.7030320374       -4.2407983403
 H         -2.4188783675       -3.9735042382       -4.1499186155
 H         -1.1663959480       -4.4172401961       -4.9318152317
 O          4.2561152188       -5.0740904677        3.2109240924
 H          4.8410114148       -4.3864250439        3.6428395067
 H          4.5050592643       -5.9071503234        3.6109094020
 O          5.1782350423        0.6432180879        1.6301806861
 H          5.7098691505        1.4170151016        1.3983306677
 H          4.6127228152        0.4141626536        0.8763254151
 O         -6.4790959461        0.8590122902        5.5453101546
 H         -6.5304105788        1.5542116698        4.8755850139
 H         -6.5452216880        0.0123843804        5.0684063800
 O          0.3298067552       -3.2427170644       -5.6148376546
 H          0.7685330190       -2.4049091386       -5.8203670288
 H          1.0258478088       -3.7734392903       -5.1806072056
 O          4.2626618624        0.4944586096       -2.8134614870
 H          5.0619791387       -0.0565692977       -2.7357280733
 H          4.1898268666        0.7009655992       -3.7679208557
 O          0.8213674477        6.2167040616        1.9769134000
 H          1.7396475406        6.5053080068        2.0229407237
 H          0.8400539273        5.4472174192        1.3641557806
 O          1.2750099568       -0.1217464044        5.1204542756
 H          1.4111234108        0.7516409698        5.5581652699
 H          1.8671833493       -0.7629038785        5.5237426876
 O         -6.2759679142       -1.3894629645        3.9712722137
 H         -5.5548599633       -1.9986037528        4.2061963553
 H         -5.9111435529       -0.8384393860        3.2416880338
 O          1.8142611752        2.2796622070        6.0190392547
 H          1.8705121580        2.6415248340        5.1117113355
 H          0.9496726053        2.5919079097        6.3392523738
 O         -4.5366579116       -0.4801896885       -5.6248501975
 H         -4.6802705107       -0.9531610505       -6.4455286953
 H         -5.3799217638       -0.0218171813       -5.4197867824
 O         -7.0026599188        0.6525237300       -5.4859748977
 H         -6.9817012907        1.3710997872       -6.1167758980
 H         -7.4194540493        1.0284467345       -4.6679847983
 O         -7.5777221233       -1.7055779879       -4.1058190295
 H         -6.8993783924       -1.2317279106       -3.5613550193
 H         -7.6464751998       -1.1765107801       -4.9066497265
 O          4.1605476820        0.7263123826        6.2800083815
 H          3.3767844211        1.1291357623        6.6686492336
 H          3.9158582849       -0.1565557037        5.9599380924
 O          6.8465177991        2.8088956431        1.2527158541
 H          6.2290036020        3.4397107144        1.6609229447
 H          7.2674646952        3.2622099109        0.5031089099
 O         -2.9724262443        5.1514786361        0.4018090454
 H         -2.3529611083        5.9257503272        0.4195832924
 H         -3.5295225654        5.2869606067       -0.3847269216
 O         -8.0563129237       -2.3967761862        2.2060001336
 H         -8.8771163044       -1.8931213553        2.2641532676
 H         -7.4754571580       -2.0781583135        2.9308816426
 O         -2.7961491604       -1.0540112156        2.6792839607
 H         -1.8995764455       -1.1728849864        3.0466894268
 H         -3.0952754849       -0.1707423111        2.9487202598
 O         -0.4038075233       -1.6241175306        3.7364018311
 H         -0.4278705935       -2.3663645021        4.3715613309
 H          0.0558916017       -0.9091918829        4.2058904795
 O         -1.5233732220        0.7728881469        4.7873202854
 H         -1.1760321475        1.4932338519        5.3472778908
 H         -2.4732796299        0.9733227804        4.6908497591
 O          2.8793955916        3.0324960318       -3.9106277099
 H          2.5835189190        2.6316861118       -3.0736342625
 H          2.4054382145        2.5684476631       -4.6280178653
 O          5.5436621675        3.3642341126       -4.1276847521
 H          5.9831544725        2.5661284289       -4.4380918585
 H          4.5821422434        3.2089136665       -4.2027332719
 O          8.1042001945       -4.4963330675        3.3110779723
 H          7.9793727738       -5.0382450679        2.5186080516
 H          8.5700974749       -3.7017050090        3.0042527577
 O          6.8220529073        0.5199616282       -0.7135039880
 H          6.0939367322        1.1731292892       -0.6386253669
 H          7.5322015222        0.7709204773       -0.1087877565
 O          5.8955350659       -3.3770477840        4.2987342593
 H          6.0456118386       -2.5465605463        3.8086413925
 H          6.7249347261       -3.8805139717        4.1423127084
 O          4.3205516369        0.4578934862       -5.4806475476
 H          5.2225316762        0.7661437261       -5.6310428417
 H          4.3706848606       -0.5082415493       -5.4278353029
 O         -4.8294297049       -5.2604385923        2.9349774703
 H         -4.6114946575       -4.3818578479        3.2743937702
 H         -4.1528463364       -5.4956376200        2.2798063911
 O          2.5747162640        0.2095603919        2.8086893860
 H          1.9967507248        0.1000965098        3.5895692553
 H          2.9907338575       -0.6550820986        2.6586234091
 O          4.2582765534        1.9874028712        3.8848214585
 H          4.0255337916        1.8265265435        4.8153081625
 H          3.7424333176        1.3252649127        3.3648832634
 O          6.4833572055       -3.6678575854       -2.9100189377
 H          5.7032872872       -4.1780712757       -2.6365820777
 H          7.1785353297       -3.8457379865       -2.2738466383
 O          3.8912074111       -2.0706413756        1.9352594406
 H          3.7674506466       -1.4823519177        1.1533396179
 H          4.8025049300       -1.9524440577        2.2174556632
 O          1.5296039399        3.0140292109        3.4277744844
 H          2.2037595980        3.0499001424        2.7389441947
 H          0.8554953222        2.3758900679        3.0891828182
 O        -10.8318151595        0.4800176212       -0.4873655626
 H        -11.7116789926        0.3917185382       -0.8540103527
 H        -10.2219735009        0.0342685549       -1.1142479223
 O         -3.0402860361        3.0193395236        7.4848912038
 H         -3.7432332196        3.6652899137        7.4157373986
 H         -3.3884770807        2.1893858611        7.0829027456
 O         -3.5919091751       -2.6712571214       -4.0870268304
 H         -4.4245489045       -3.1813798486       -4.1561035095
 H         -3.7582865071       -1.8504646746       -4.5665251084
 O         -2.2010396936       -4.8881745433        4.2533736181
 H         -2.8117662585       -4.1138724190        4.2347270642
 H         -2.7626713765       -5.6645416708        4.2831363759
 O         -4.6219293765        5.6844910874       -1.7489938753
 H         -5.1451248671        4.9861100236       -2.1958421581
 H         -5.2573486808        6.3326585196       -1.4419576540
 O         -2.3521220155       -1.5657602722        6.0757226043
 H         -1.9555027424       -0.7902286934        5.6322244833
 H         -1.6268507945       -2.1723961144        6.2594186669
 O         -2.1855036795       -3.3103078659        0.9338224471
 H         -2.9643548465       -2.8190395480        1.2456792560
 H         -2.4128452324       -4.2590357171        1.0241643408
 O          2.3636283529       -6.3804923734        0.6604445564
 H          2.3401362599       -5.3916273369        0.6190618872
 H          2.7203670433       -6.5946471406        1.5215134176
 O          1.9703667671       -3.7191052084        3.9958937717
 H          2.7271863654       -4.2532991423        3.7142552654
 H          1.2535333457       -3.9539231016        3.3723970690
 O         10.2390731754        0.2502862275        2.5779179541
 H          9.5959701937        0.9342962194        2.9191425952
 H         11.0638384778        0.3929605509        3.0411490521
 O         -2.1209765293       -3.1742502278       -1.7151995027
 H         -2.0288937555       -3.1552337395       -0.7409378392
 H         -2.9948405404       -2.7798214427       -1.9087403228
 O          2.1506101136       -6.4851890661       -2.1553895850
 H          1.2479795363       -6.1006791499       -2.2102546964
 H          2.2312620393       -6.8144638188       -1.2527510525
 O        -10.0507434114       -0.4377672775        1.9382582974
 H        -10.3934957497       -0.1684059231        1.0593275165
 H        -10.6398002944       -0.0596457286        2.5921043340
 O         -0.0518049412       -4.6615211166        2.5368589069
 H         -0.8492821061       -4.7657936870        3.0747948419
 H         -0.1749424968       -5.2091789886        1.7429490636
 O         -3.3883150249       -5.5380080942       -1.7464190239
 H         -2.8481537131       -4.7106510749       -1.8093584859
 H         -3.1859179372       -6.0213850221       -2.5489044592
 O         -6.3986735650        3.9408650838       -2.8224122053
 H         -7.0296652647        4.1869215313       -3.4988416886
 H         -6.8745042614        4.0686089899       -1.9555760118
 O         -5.9586344805       -4.6620454228       -1.4868021253
 H         -5.1071550000       -5.1359756719       -1.5556421445
 H         -6.2838094420       -4.8110724310       -0.5850220728
 O         -0.2203350864       -5.2223901082       -2.1116526707
 H          0.1801347323       -4.3414869506       -1.9852621450
 H         -0.8287700092       -5.1139118712       -2.8742154682
 O         -5.9822571371       -3.9138033731       -4.2006583991
 H         -6.6465314823       -3.2030778161       -4.2588676086
 H         -6.1638479988       -4.3778124326       -3.3756512348
 O         -3.8944194871       -2.7978768770        4.2378892365
 H         -3.5525346385       -2.1915469822        3.5207252253
 H         -3.4982312861       -2.4098088139        5.0464743397
 O         -0.7628493282        3.0158662389        6.1216998292
 H         -1.5321100915        3.0860673426        6.7267922252
 H         -0.7921689485        3.7893528414        5.5436391418
 O         -2.8758789031        3.2755736546       -2.6849940968
 H         -1.9195311467        3.3183496987       -2.5083777876
 H         -2.9659204558        3.7538245280       -3.5327769610
 O         -7.3074129049       -1.7880182731       -0.3468823168
 H         -7.1462963115       -2.6488676164       -0.7401469100
 H         -7.5682187302       -1.9590493752        0.5782903635
 O         -5.5482496671        4.3379031770        1.3520327624
 H         -5.1640142762        3.7632797326        0.6513800236
 H         -4.8915776149        5.0249977999        1.4908108539
 O         -7.7543193041        0.9800788182        1.5265781173
 H         -8.4930278372        0.3847172689        1.7403498392
 H         -6.9358150518        0.4331795313        1.5415086000
 O          2.7091147207        2.2830125215        1.0210569844
 H          2.6399823532        1.4401399512        1.5032997238
 H          3.5303824650        2.2433906836        0.4882265413
 O         -7.5576959176        4.5831309768       -0.5811747772
 H         -6.9670661881        4.5793808760        0.1889025483
 H         -8.3253842644        4.0362249039       -0.3301108882
 O          6.0804767830       -1.9835467428       -0.0783534655
 H          6.3040576203       -1.0484318907       -0.2631572663
 H          6.9164622191       -2.4678615540       -0.2183193625
 O          3.5360651911       -1.7884098723        5.1382115548
 H          4.3631085871       -2.2785508152        5.1757171270
 H          2.9225872406       -2.3803246167        4.6630258906
 O          6.9897442928        0.9541153366       -4.8776457363
 H          7.7350753238        0.7187069756       -5.4295588509
 H          6.8351422471        0.1825066244       -4.2671414937
 O          5.1663931952       -4.5093334688        0.7268999988
 H          4.7330926618       -4.6586075150        1.5882346747
 H          5.3166342092       -3.5545089963        0.6320024142
 O          8.4325382422       -3.2928699694       -0.2385018266
 H          8.2964036638       -4.2182350596        0.0227359380
 H          8.7326395055       -2.8480157374        0.5837111325
 O          6.5661452556       -0.9650887533       -3.1409093621
 H          7.4167780071       -0.9389941909       -2.6441587578
 H          6.4126574251       -1.9163011030       -3.2909828232
 O          6.5263561378        0.8346750214        4.7234689723
 H          5.7628739176        1.2600916435        4.2678804236
 H          6.2246274135        0.7101099896        5.6277105302
 O          8.5041499839        2.0581599674        3.3015215813
 H          7.9655309601        2.3104642961        2.5275261874
 H          7.8844394975        1.6507325630        3.9296905860
 O         -3.9178835354        0.8496530770        6.2292176921
 H         -4.8856509341        0.8651755718        6.0469901351
 H         -3.7070587930       -0.0195876307        6.5795871932
 O          8.8598110455       -2.1010665995        2.1190411434
 H          9.4823152200       -1.3798732126        2.2927824007
 H          7.9765741029       -1.7386097215        2.3499502680
 O          5.0646363825        4.2415405116        2.7903876381
 H          5.5725630253        4.5988979493        3.5203108681
 H          4.6578775968        3.4106303222        3.1408329405
 O          7.9907766636        4.0289574167       -0.9288701110
 H          8.0958453587        3.2827927107       -1.5834985062
 H          8.7525458717        4.5967650169       -1.0364740166
 O          3.6430443574        6.3031127602        1.6804855783
 H          4.0832106632        5.5101496240        2.0446281973
 H          4.2054385410        7.0527247839        1.8745689618
 O          7.5396654797       -5.6564458417        0.8033394032
 H          6.6195965345       -5.2957700729        0.7497888614
 H          7.5160446552       -6.5529002996        0.4707481375
 O         -9.0899741183       -0.7554937240       -2.0677709428
 H         -8.4315451414       -1.0254436894       -1.3897603455
 H         -8.8303259801       -1.2575118473       -2.8604163599
 O          8.2081497588        1.9903988031       -2.5360305654
 H          7.8338963337        1.9241923624       -3.4240425208
 H          7.7611479321        1.2971249349       -2.0108241074
 O          9.3998769052        0.8025893671        0.0734952295
 H          9.8040327896        0.5609763972        0.9272265401
 H          9.9328160582        1.4917248932       -0.3223297857
 O         -6.8623070619        1.5021577674       -1.0384180133
 H         -7.2667322027        1.3390789510       -0.1743724483
 H         -6.0699274309        2.0534992546       -0.8894428121
 O         -0.3581447578        4.8479587101        3.9978335257
 H          0.3790058883        4.2185165218        3.8593507560
 H         -0.1108431945        5.6043208799        3.4410764625
 O         -6.2815026512        2.5152829938        3.2725486496
 H         -6.9053750534        2.0134934798        2.7214675352
 H         -6.0455079803        3.2887845749        2.7315455749
 O          2.0004858151        5.6229350875       -3.5281560427
 H          2.4752360478        5.8710965214       -2.7252585954
 H          2.3513239726        4.7387917059       -3.7489732192
 O          3.0944108215        5.6057374047       -0.9627527045
 H          3.9279203137        5.1973734059       -1.2546398163
 H          3.2819233308        6.0083623980       -0.1016847916
 O         -2.7157849694        4.1557743687       -5.2134271215
 H         -1.7587535596        4.2849144724       -5.3484426344
 H         -2.8791517599        3.2497621475       -5.5253676989
 O         -9.4440209773        2.8495927990        0.3197825358
 H         -8.8568352316        2.3287587189        0.8830043599
 H        -10.0090312089        2.2060055410       -0.1253980913
 O          8.9222618640       -1.1269991832       -1.9182937120
 H          9.1227945655       -0.4528515398       -1.2512354610
 H          8.9122820761       -1.9733439523       -1.4531258043
 O          4.2111741443       -4.8095037441       -1.8033899088
 H          4.4287485406       -4.8971397870       -0.8617044759
 H          3.4812323230       -5.4360352361       -1.9870924781
 O          1.1640626280        1.9315752373       -5.7017003655
 H          0.5887357482        1.4864173714       -5.0360200276
 H          0.7798947373        2.8237615796       -5.7825910936
 O          6.5003845331       -1.1335395425        2.9265039244
 H          6.6689450411       -0.5650867162        3.7027239188
 H          6.0426569738       -0.5043430427        2.3077256214
