  222
       -371.47542550
 H         -1.0778742841        1.2508442556       -2.1281523042
 C         -1.3617787666        0.3568342528       -1.5714847749
 H         -1.8121568548        0.6508068927       -0.6216073707
 C         -0.1214244146       -0.4998581576       -1.3157881728
 H          0.0073049555       -1.2149014057       -2.1260797161
 H         -0.2430935013       -1.0568963809       -0.3945185816
 O         -2.3229418314       -0.3086823953       -2.3732178886
 H         -2.5045127301       -1.1676369754       -1.9499226987
 N          1.0687892218        0.3475885280       -1.2129673757
 H          1.8546130572       -0.1586816861       -0.7150986068
 H          0.8664520257        1.2205289526       -0.6786508306
 H          1.3812054905        0.6252620175       -2.1591301969
 O          0.8788804385       -1.7544569751       -4.4286626832
 H          0.1904689938       -2.3375866904       -4.0553215802
 H          1.6323549712       -1.9178222752       -3.8173124376
 O          2.8962386347       -0.9576172408        0.1557254662
 H          3.4575431595       -0.3523960719        0.6810832881
 H          3.4977614668       -1.2949215589       -0.5389197841
 O         -0.7372256197        0.9472282103        1.4929495496
 H          0.2190350228        1.0994594717        1.6319473972
 H         -1.2080370397        1.5807317075        2.0614547879
 O         -3.6612402980       -3.1926376171       -3.1686287948
 H         -3.6858356800       -3.9288465536       -3.7823663244
 H         -4.2864161343       -3.4474186812       -2.4433294451
 O          1.2506805583        0.8572612402       -3.9001890401
 H          1.0579907636       -0.0660686589       -4.1828841289
 H          0.4811387178        1.4006854685       -4.1202693144
 O         -1.1119436734       -1.6245842173        1.6806322851
 H         -1.0586537793       -0.6369397496        1.6793863263
 H         -1.7139570384       -1.8619473223        0.9377470376
 O         -3.8615438228        1.7104892315        0.0789792895
 H         -4.6656406898        2.0569184728       -0.3618198194
 H         -4.0441197320        1.8192744183        1.0363918144
 O          0.5808235441        3.8832502655       -2.8279951493
 H         -0.0099026696        3.4347181862       -3.4509461028
 H          0.0997795606        4.6669293187       -2.5096393915
 O          2.8449137751       -0.9404834277        3.0929710768
 H          2.1997310341       -1.3745304748        3.6791683203
 H          3.6569342287       -0.8051807564        3.5961002836
 O          3.1096135052        1.9604617144       -0.5354214316
 H          3.0159753325        2.8872874384       -0.8092505181
 H          2.7507111274        1.8732387988        0.3603077477
 O         -0.9978983008        2.4964104359        5.4247769898
 H         -1.6982084305        2.2561117225        6.0321649811
 H         -0.4526594495        1.6935828240        5.2973342055
 O          5.0689573759       -1.2130083790       -1.3457965699
 H          5.5854961694       -1.3796909777       -0.5340569098
 H          5.1362318061       -0.2581517836       -1.5783041056
 O          2.8155717117        1.9545870952        5.5587448831
 H          2.9706477232        2.1951060069        6.4715818896
 H          3.7078306734        2.0148143901        5.1015600461
 O         -1.5248389773       -2.8693476120        3.9696350306
 H         -1.2485948354       -3.8060584410        3.8317443979
 H         -1.3439128294       -2.4251056017        3.1066696773
 O         -4.0186741339       -1.3510998345       -5.2000235110
 H         -3.1060942860       -1.0435051562       -5.3422633312
 H         -3.9789395389       -1.9200114516       -4.4101921008
 O         -5.2527507264       -4.1495086274       -1.2992092533
 H         -4.6315116657       -4.5293768039       -0.6581745158
 H         -5.8496303194       -3.5905707080       -0.7758778301
 O          3.1929180491        4.3639555500       -1.7852479473
 H          2.5424829264        4.1470382317       -2.4633572781
 H          2.8049447527        5.1419239735       -1.3190543056
 O         -3.6928027686       -0.4341974514        2.0531934135
 H         -3.1236963746       -0.1549421448        2.7945110786
 H         -4.5833106807       -0.0984458674        2.2415942043
 O         -2.0880102267       -0.0874235003        4.2241316964
 H         -1.1672831777        0.1713935417        4.0914618751
 H         -2.0594063119       -1.0182379722        4.4723002166
 O          1.1797948503       -2.7555364838        1.1451175131
 H          1.8352561624       -2.0799434910        0.8793201979
 H          0.3546207710       -2.2889736011        1.4111488301
 O          5.5890069812       -0.4017864840        3.5487848434
 H          5.3188126140       -0.1445977850        2.6328788063
 H          6.5233790896       -0.6117317596        3.4769452438
 O          5.0897122654        1.2944778393       -2.1618433425
 H          4.4312437001        1.5915335831       -1.5004756561
 H          4.6420972255        1.3516990128       -3.0192489502
 O          1.8794142675        1.3480104593        1.9538382698
 H          2.2236536383        0.5331110632        2.3664748644
 H          1.7410062738        1.9921780463        2.6672056556
 O          3.5905748703       -3.9298217404       -0.8105517299
 H          3.6080670137       -3.6465878173        0.1268441668
 H          4.5217459762       -4.0848441511       -1.0216108084
 O          6.4701703988       -4.1864281950       -1.2022161199
 H          6.8955695987       -5.0220033058       -1.3934561737
 H          6.6525072605       -3.5939706631       -1.9606951447
 O          1.9771825475        4.3121069845        1.4292276960
 H          1.6277613815        4.1731140875        2.3224933908
 H          1.4702051990        3.7139267059        0.8399269642
 O          0.5348767840        2.8556378164       -0.3395232573
 H         -0.3920316725        2.9960812664       -0.0602463017
 H          0.6265939989        3.2385851238       -1.2359451755
 O          7.6980957009        0.2909942343       -2.3562431457
 H          6.9154515080        0.7489706082       -2.6880608778
 H          7.6085163915       -0.6330828908       -2.6392549311
 O          7.0455508776        1.3517400579        0.0266463646
 H          7.3709789290        0.9429809720       -0.8040287265
 H          6.7003110579        2.2197844028       -0.2257044551
 O         -4.7345233107       -0.7623087907       -0.5255316239
 H         -4.3401395838        0.0504798746       -0.1471822737
 H         -5.1790518136       -0.4947070044       -1.3489586904
 O         -3.9174345543       -2.9800414659        2.6591763098
 H         -3.2215762179       -3.0747333361        3.3343956698
 H         -3.7880232645       -2.0589783383        2.3017009547
 O         -6.3135833840        0.2915368668        2.5502858307
 H         -6.4978427569       -0.5939705962        2.8975658595
 H         -6.9764040748        0.4503979330        1.8601579170
 O         -0.8903322580        5.6173563683       -1.2970783521
 H         -1.7015861631        5.9858284086       -1.6582925100
 H         -1.1743029502        4.9980625141       -0.6075341604
 O         -6.3499912415        2.2297381347       -0.8232077968
 H         -6.9925797616        1.8163372921       -0.2236110327
 H         -6.3210527804        1.6322902188       -1.5930372173
 O         -5.5115337629        4.3903833253        0.6625481384
 H         -6.0674014989        3.8138338017        0.1213481416
 H         -4.9034660731        4.7890877911        0.0214579651
 O         -3.3250311757       -4.6390811786        0.5785923314
 H         -3.5464025001       -4.1916410066        1.4189063097
 H         -2.5033776695       -5.1404194238        0.7107552235
 O         -1.9470954684        3.5236374525        0.3257783032
 H         -1.9075445903        3.5764712178        1.2959113222
 H         -2.5540962768        2.7617931403        0.1572734671
 O          6.7049392294       -2.2481391090       -3.0902328443
 H          6.2772312155       -2.2132267386       -3.9513365006
 H          6.0233530945       -1.8721227870       -2.4722603686
 O         -2.0152538666        2.8759297379        2.9355841243
 H         -2.9774900538        2.7468051340        2.9562270086
 H         -1.7077026443        2.8092968190        3.8575392652
 O          3.7750606553        1.2928375384       -4.5800183807
 H          3.8352304520        2.0244658546       -5.1939871188
 H          2.8262561644        1.1931555144       -4.3356093420
 O         -3.6253170380        2.1832003413       -3.0745313789
 H         -4.2602437148        1.9057221513       -3.7542686809
 H         -3.4024238300        1.3698721794       -2.6006166518
 O         -3.7198849001        4.6428696607       -1.5205602549
 H         -3.8776028206        3.9179331722       -2.1403172887
 H         -3.0990664724        4.2865046700       -0.8694181388
 O          1.8318985199        6.2407976564       -0.4854758988
 H          1.8720074793        5.7677070804        0.3635723285
 H          0.9075166236        6.2289595775       -0.7629299189
 O          4.3946265643        3.1558588726        1.8392281814
 H          4.9476040400        3.4787282127        1.1087564235
 H          3.5348821007        3.6153481112        1.7386788552
 O         -8.4110846901       -1.2031293320       -1.2292724664
 H         -7.7721452662       -1.7334013278       -0.6870369711
 H         -9.1637793489       -1.7708711788       -1.3956074445
 O         -4.6758661664        2.5720361264        2.4785730002
 H         -5.0452214292        3.3327299060        1.9796435944
 H         -5.4056227511        1.9924154168        2.7285433606
 O          8.0680665037       -0.2979930775        1.9535615491
 H          9.0192082452       -0.2066269136        2.0109613004
 H          7.7571990977        0.4106479218        1.3591201094
 O         -0.8620074892       -5.8413165818        0.6301581190
 H         -0.7705374861       -6.7529793823        0.3537199522
 H         -0.2942681125       -5.2995415704        0.0312594148
 O          5.6591045364        3.8755635034       -0.5091368090
 H          4.8701593156        3.9688465416       -1.0716033015
 H          6.1517324102        4.6916916780       -0.5988561676
 O         -8.2229229493        0.7894902034        0.5842584453
 H         -8.3514653069        0.0953153405       -0.0981094783
 H         -9.0816414291        1.1682492010        0.7733140342
 O          4.4941089068       -1.3803719496       -4.6428125571
 H          3.9239220024       -1.7427085449       -5.3228312042
 H          4.3587257298       -0.4177839971       -4.6568953195
 O         -1.5069959800       -0.3220219395       -4.9661477773
 H         -1.7555326957       -0.3958638368       -4.0189112732
 H         -0.7417372483       -0.8955813182       -5.0905383606
 O         -6.2959935205        0.1497603825       -2.5193805124
 H         -6.0898849032        0.3500534382       -3.4507268555
 H         -7.1215668458       -0.3456266612       -2.4612460560
 O          0.6779340279       -4.2939810334       -0.9110196645
 H          1.5695642286       -4.5394577247       -1.1806330909
 H          0.8337897619       -3.6534838559       -0.1708238818
 O          2.0276175129       -4.2774051109        3.1736009049
 H          1.7153023153       -3.7661305512        2.3911021544
 H          2.9751369619       -4.3588231588        3.0297493637
 O         -0.5543304793       -5.2463295193        3.3313590406
 H          0.4023534767       -5.1227206847        3.4204143742
 H         -0.6987939732       -5.4851144388        2.4022121432
 O         -2.5628185372       -2.2921267605       -0.4418801796
 H         -2.8015192495       -3.2173039470       -0.2353591600
 H         -3.3962324310       -1.7867610860       -0.3638343508
 O          2.7327011811       -2.0021730610       -2.5581122113
 H          3.5393068079       -1.7912964018       -3.0504201030
 H          2.9655281174       -2.7439024128       -1.9679526562
 O         -0.8723267205       -3.1294569736       -2.9490594718
 H         -1.8327651293       -3.1827521583       -2.8349248513
 H         -0.4501640452       -3.5976803054       -2.2120253144
 O         -6.4831515566       -2.4506660008        3.0566157467
 H         -5.5327881861       -2.7196290656        2.9998320735
 H         -6.9078854217       -3.0590066018        3.6606693179
 O          4.0905473720       -3.0847012175        1.7585586663
 H          3.6293421683       -2.3004293630        2.1018773197
 H          4.9777290073       -2.7764693163        1.5185220181
 O         -5.2930737742        0.8905528862       -4.8835598452
 H         -4.8066182849        0.0301013549       -5.0382747054
 H         -5.6731483269        1.1432753495       -5.7244833003
 O          0.6547218521        0.4469677494        4.7724444851
 H          0.7961282353       -0.4955894344        4.9423571964
 H          1.4769862305        0.8927755795        5.0367027939
 O          1.0509754604       -2.2826027902        4.7086097664
 H          1.4875932655       -3.0911483875        4.3742626992
 H          0.0985254948       -2.4679417826        4.5914176591
 O          1.2509241799        3.3186001566        3.8382664298
 H          0.3935964779        3.3624951952        4.2720163075
 H          1.8744134739        2.9968622750        4.5164218449
 O         -1.1848861271        2.3025591125       -4.3127766281
 H         -1.3472363880        1.5048205218       -4.8458722756
 H         -2.0456525598        2.4627676296       -3.8766448978
 O          5.0752106363        2.1438311224        4.3313877843
 H          4.9163678301        2.5884459439        3.4820775945
 H          5.3475072232        1.2265291872        4.1244414371
 O         -6.6345261328       -2.3799779447        0.3144993031
 H         -5.8953731342       -1.7507834247        0.1439829570
 H         -6.7044830539       -2.4527290278        1.2812513533
 O          4.7946360425        0.5720519140        1.2463114587
 H          4.4987615983        1.4714110127        1.4995269769
 H          5.5968456776        0.7262503275        0.7091881118
 O          6.4514327269       -2.1339504397        0.7499562663
 H          7.1684365138       -1.6391198659        1.1810691614
 H          6.8070039979       -2.8904484306        0.2661099772
