  249
       -422.60978247
 O         -3.7622964352        0.7329368662       -3.2734502996
 H         -4.0915220859       -0.1585961093       -3.5078572180
 H         -3.2585697358        0.6158875213       -2.4391471588
 O          0.2576786974        1.4304019523       -3.7005685278
 H         -0.3849529470        1.7576194710       -3.0316188885
 H          1.0996801465        1.2766053354       -3.2101260450
 O          2.9038191620       -4.9240941574        2.5125465858
 H          2.8624384862       -3.9452304271        2.5110684879
 H          3.2102197984       -5.1417929622        1.6153418691
 O          0.0147280235       -1.8616097172        2.5185898423
 H         -0.2893481151       -2.5403282143        3.1578760458
 H         -0.0764743891       -0.9960468342        2.9355366368
 O         -0.7358018607        2.5896751992        4.8704437287
 H          0.0863432888        3.0709371888        5.0435472135
 H         -1.2353662605        3.1217617514        4.2142705279
 O         -7.8255426161        1.5551445100        1.9291636730
 H         -7.5833263923        0.6662423992        1.5900935788
 H         -8.4358715846        1.8989786371        1.2529060317
 O         -0.9562508087        6.2751776692        2.4388323343
 H         -1.0457489366        6.2609608171        1.4703507402
 H         -1.5033384866        5.5353724689        2.7591294620
 O          5.1883902871       -5.4357780104       -2.3643537042
 H          5.9330843217       -6.0050915375       -2.1717064127
 H          5.5478817292       -4.5195828928       -2.4261004134
 O         -1.6388897811        2.3315314481       -2.1145963561
 H         -1.7508682409        2.6375498054       -1.1970156470
 H         -2.1049742775        2.9639748378       -2.6862495575
 O         -2.1977530658        0.2034883133        4.3641064770
 H         -1.9689395747        0.9367791560        4.9428705289
 H         -2.5884499707        0.6312457236        3.5673442321
 O          1.5834155139       -2.1555912200       -1.9184570090
 H          0.7376386750       -1.7730327650       -2.2093699040
 H          1.3641596603       -2.7157757941       -1.1450602528
 O          3.1360767648        0.7643863304       -5.2200857979
 H          3.0935275613        0.8033516593       -4.2492698310
 H          2.8145812958        1.6281085243       -5.5119375419
 O         -6.0146527967        0.7819453857        4.0053129453
 H         -6.7505817699        1.0782622083        3.4526687344
 H         -5.8549792810       -0.1408733362        3.7763266422
 O         -1.0514116740       -3.9286081011       -1.5608808893
 H         -0.1368495180       -4.2697499876       -1.5622768293
 H         -1.1741240730       -3.4233207339       -0.7289773590
 O          2.3819029602       -2.8730955982       -4.3076944248
 H          2.1140750360       -2.7170266505       -3.3715979439
 H          1.7735179170       -2.3099833878       -4.8209598746
 O         -1.0870854340       -3.7561886003        4.0474222387
 H         -0.7876376418       -3.2877249615        4.8510807438
 H         -2.0081956772       -3.4716234707        3.9285895882
 O         -3.3588308805       -2.2151678147        3.8482916025
 H         -2.9740923381       -1.3833323981        4.1788262663
 H         -4.2779210607       -2.2425069393        4.1366791606
 O         -5.3404350311        2.8488904284       -3.0547418144
 H         -6.2115667427        2.4738489534       -2.8512911873
 H         -4.7630964858        2.0559764664       -3.1280308273
 O          3.6141203338       -4.9478862806       -0.1260645563
 H          4.1365005962       -5.2777104658       -0.8736934617
 H          2.7130537298       -4.8310202666       -0.4711904645
 O         -6.0955470292       -2.0692725059        3.4108966038
 H         -6.0107037081       -2.8510777756        2.7902429455
 H         -6.8905826184       -2.2345607832        3.9184485483
 O          5.9465593420       -2.8713272980       -2.4311602897
 H          5.3019536299       -2.6532164043       -1.7164516363
 H          5.5873986892       -2.4622186013       -3.2332380542
 O          7.6213763383       -0.8384783172       -1.6844303609
 H          7.5188895011       -0.9380449385       -0.7172445074
 H          7.3179515147       -1.6908644134       -2.0455503839
 O          0.2418178330       -5.2731593031        2.0345294198
 H          1.1668684490       -5.3479170954        2.3471629485
 H         -0.2561473952       -4.8915351809        2.7724301196
 O          0.4444581956        0.8006482764        3.3197900943
 H          1.1541242682        1.3636198427        2.9640601313
 H         -0.0697336763        1.3758088241        3.9300080829
 O         -0.3278566684       -1.7346855043        5.6403753203
 H         -0.8774338348       -1.0207830454        5.2930299267
 H          0.5950378021       -1.5022463154        5.4430134677
 O         -1.5500861676       -6.1704870042        0.0489735204
 H         -1.3769448121       -5.5319619399       -0.6642532568
 H         -0.9012835799       -5.9923243803        0.7473976477
 O          4.4197977715        0.4318459529        4.0958725409
 H          4.9705957599       -0.3170976126        3.8081711205
 H          3.6448549966       -0.0091584071        4.4984383444
 O          3.1629565282        3.9112148331       -2.9368304041
 H          3.0443192054        3.9108293254       -3.8938218783
 H          4.1100242426        3.8130555347       -2.7061081864
 O          2.6136803212        1.3097252095       -2.5421913579
 H          2.7996725984        2.2642787332       -2.6460459224
 H          2.5047122066        1.1902228995       -1.5746288116
 O          4.7547831971        0.2969355498        0.0441875571
 H          4.0013921606        0.8665498652        0.2723902905
 H          4.9574681390        0.4712136483       -0.9003670750
 O         -1.7445852122       -2.5340053508        0.6478140825
 H         -1.0935896197       -2.3105922633        1.3440860863
 H         -2.2784210883       -3.2893664475        0.9616202285
 O          1.8879606622        3.5651747503        4.8314821512
 H          2.5275796855        3.5179570086        5.5412886472
 H          2.2434419108        3.0080690333        4.0981383666
 O          5.4322997998        0.4305770291       -2.5102944480
 H          6.3080797885        0.0231712255       -2.3266989103
 H          4.9961056980       -0.1709530458       -3.1424481479
 O         -2.2313319202        3.4181067681        0.3126032883
 H         -1.6676660636        4.2125013780        0.1749274701
 H         -3.1087373390        3.6790245030       -0.0423079054
 O          3.1730139090       -2.2461844231        2.1474832525
 H          3.3395769166       -2.3977752503        1.2052755642
 H          4.0495639427       -2.0522211347        2.5432274997
 O         -5.5924985648        2.8698556813        1.2526095566
 H         -5.0676734575        2.9258527837        2.0679212876
 H         -6.4584997005        2.4909436159        1.5220788729
 O          2.7601436139        2.0996339201        2.7834160224
 H          3.1695050524        2.4615655124        1.9771566919
 H          3.4128482503        1.4830119910        3.1723026540
 O          2.7226377425       -5.5311930347       -3.6972041817
 H          3.6255390555       -5.5775366228       -3.3485123947
 H          2.6334569453       -4.6543821585       -4.1069207699
 O         -2.8561409660        5.9413142898       -2.1572846294
 H         -3.5739063099        5.5105138385       -1.6668481108
 H         -2.7198203958        5.3962244003       -2.9424047513
 O         -2.0881061395        1.3673488982       -5.2279767087
 H         -1.2166636742        1.4102913095       -4.8116128810
 H         -2.7189247153        1.1815075869       -4.4931834791
 O         -6.6771869396       -2.6697860486       -0.7720567667
 H         -6.8239870743       -1.9454800600       -0.1222766898
 H         -6.9929817248       -2.3270606612       -1.6200025320
 O          4.3070037803        3.1268866638        0.7033773478
 H          4.0532765537        4.0616584259        0.7652055479
 H          4.9915714610        2.9703945351        1.3927434691
 O          5.4303145245        3.0373220806       -1.7840075737
 H          5.0142205212        3.0286230054       -0.8939500858
 H          5.3188568043        2.1419157580       -2.1526757336
 O         -5.9922619005       -4.0281301503        1.6960155373
 H         -5.0763098206       -4.2927250974        1.4787866043
 H         -6.3833207832       -3.7608130370        0.8547957486
 O         -6.9976994752       -1.4215552209       -3.2723194267
 H         -7.5392419072       -1.7444631500       -3.9922408304
 H         -6.0687586123       -1.5443616245       -3.5456811173
 O         -1.0014790840        5.7205337689       -0.2601007447
 H         -0.1237989307        5.6663046074       -0.6643739492
 H         -1.6310769297        5.9575101990       -0.9762435290
 O         -4.6481121707        3.0807297332        3.8621385514
 H         -5.1678105686        3.5908253677        4.4827971308
 H         -4.9362001491        2.1478608377        3.9586760468
 O          1.6985016055        3.1569264670       -5.2358882037
 H          1.0863393033        2.6117254490       -4.6924208601
 H          1.1495867451        3.6536412413       -5.8416231412
 O         -4.0738264816       -2.7350929977       -1.3653151090
 H         -5.0213589546       -2.7222519030       -1.0992506596
 H         -3.6681072951       -1.9431863985       -0.9807882154
 O          4.5896914985       -1.4161916886       -4.3225626949
 H          4.4426500722       -0.7880479750       -5.0369573326
 H          3.7892854584       -1.9974722287       -4.3249798272
 O          5.9169056753        2.4956463307        2.7338105294
 H          6.7324184294        2.0977097264        2.3860846661
 H          5.5168312527        1.8354898554        3.3150926981
 O          1.5760923640        5.1511531923       -1.1004356165
 H          2.2464237939        5.4749207733       -0.4764051467
 H          2.0706790343        4.7444674756       -1.8305011147
 O          8.1446942027        1.3957989295        1.5374177020
 H          8.0553640699        1.7064472893        0.5980910990
 H          9.0231512374        1.6468702460        1.8212984692
 O         -1.9000577608       -1.3622663880       -5.2908311906
 H         -2.0549310656       -0.4076592697       -5.4522019810
 H         -1.0468494490       -1.5483542673       -5.6974934846
 O         -2.1772544044        3.8941647401        3.0099160941
 H         -3.0555945906        3.6292787700        3.3305689113
 H         -2.1476987047        3.6077000416        2.0754292622
 O          1.3757846395        5.1316240649        2.6377604149
 H          1.4945011981        4.7896493258        3.5348097617
 H          0.5285912653        5.6542808024        2.6239241528
 O          0.7379876448        3.3200626199        0.7203302789
 H          0.9274383506        3.9161941015       -0.0271159908
 H          0.9400398987        3.8477823487        1.5146562688
 O          5.6057832092       -1.8405244642        3.2027602127
 H          5.6869702490       -2.7994965019        3.4290458538
 H          6.2291935920       -1.6758570728        2.4759941358
 O         -4.3501742129       -1.8191832617       -3.8291277517
 H         -3.6150834033       -1.9779320918       -4.4334084159
 H         -4.1410096239       -2.2811481293       -2.9776972606
 O         -5.1255025142        0.8005807977       -0.3665205642
 H         -4.2330390187        0.4571857702       -0.5234429314
 H         -5.0779251350        1.5765445455        0.2327252935
 O          6.1178378778       -3.8872552644        0.6840785767
 H          6.3639058921       -2.9615584131        0.6016432922
 H          5.2133813326       -3.9748856385        0.3457047609
 O          1.0808191881       -3.2802694174        0.4165408098
 H          1.0560731527       -2.6309726462        1.1308219440
 H          0.7658841912       -4.1056611274        0.8269523883
 O         -1.0165461629       -1.5444558657       -2.7166969532
 H         -1.3423544013       -1.4969434704       -3.6349761458
 H         -1.1490803025       -2.4750794424       -2.4252557487
 O          1.2608250058       -5.3244184812       -1.5230329498
 H          1.7490033039       -5.4334066989       -2.3796991615
 H          0.9479295454       -6.1952858141       -1.2734354465
 O          7.9183938290        2.0503120883       -1.0020467059
 H          7.9664484514        1.2114430687       -1.4750415766
 H          7.1170905367        2.5127629299       -1.3122623741
 O          6.9206220648       -0.9497122798        0.9590144117
 H          6.0923751723       -0.4801197414        0.7265062786
 H          7.4962912008       -0.2492131201        1.3108841734
 O          2.1027900644       -0.9334633313        4.5023810838
 H          1.5114476579       -0.2597558313        4.0998789981
 H          2.3130327224       -1.5462385991        3.7832763274
 O          5.5899497136       -4.4770771619        3.2980282577
 H          5.9149315144       -4.4872900486        2.3774716918
 H          4.6727476501       -4.7925535303        3.2514111763
 O         -3.3029401082        1.2478241019        2.1421018632
 H         -3.6061583046        0.3804285330        1.7884146194
 H         -2.7613489021        1.6566092059        1.4604342934
 O          3.3297000666        5.6947776577        0.9656902482
 H          3.7580626932        6.5093533380        1.2259668698
 H          2.6221372703        5.5189964754        1.6333405743
 O         -7.1922013691        1.1060883415       -2.0513557320
 H         -6.4539448930        0.9727920461       -1.4201135683
 H         -7.2822742553        0.2579617427       -2.5088450704
 O         -3.9417292343       -1.1946916923        1.3739399539
 H         -3.1326189528       -1.5026263453        0.9215206478
 H         -3.9051753852       -1.6476734589        2.2330992725
 O         -9.0125389119        2.2897779020       -0.4027523447
 H         -9.0415844272        3.1945338583       -0.7143065506
 H         -8.4276676756        1.8059526293       -1.0204608266
 O         -6.7596333091       -0.7320674272        1.0410092874
 H         -6.0321573046       -0.2495897171        0.5813156523
 H         -6.3566692626       -1.1529872095        1.8172245400
 O         -3.5301442969       -4.5073933942        0.7150935422
 H         -2.9699811787       -5.2937118054        0.5438200812
 H         -3.7033515075       -4.1016332453       -0.1543494619
 O         -2.6818445672       -0.2304801185       -1.0384434226
 H         -2.0831754424        0.2359603745       -0.4027715412
 H         -2.0659181517       -0.7228962799       -1.6214896157
 O         -2.9077207219        3.8355121264       -4.0633150357
 H         -3.8501046789        3.6946561115       -3.8949914330
 H         -2.6598692592        3.1901356834       -4.7433280150
 O          4.0881593187       -2.1926355730       -0.6207902237
 H          3.2898063406       -2.1731987415       -1.1661911368
 H          4.2896827345       -1.2707641048       -0.3514818328
 O          0.8977295569       -0.8123651416       -5.3033512752
 H          1.7146327687       -0.3294413365       -5.5257278344
 H          0.4934130466       -0.2641243946       -4.6132414954
 O         -4.5313085535        4.1607855793       -0.8533743908
 H         -4.8461978409        3.6787574733       -1.6495369122
 H         -5.1043449159        3.8816333345       -0.1207605138
 O          2.1018735044        1.1006972451        0.0668344194
 H          1.6661951566        1.9405068583        0.3318735557
 H          1.4498016128        0.4084666191        0.2077887022
 O         -0.8284901338        0.9686171859        0.7194983360
 H         -0.5328131626        1.8789399431        0.5739583538
 H         -0.5491362864        0.7459618092        1.6185179804
 O         -9.3451328894       -0.8086266280       -0.3590115856
 H         -8.5803099248       -0.8551240374        0.2231459761
 H         -9.6305343769        0.1073171057       -0.3654761317
