  189
       -320.74512932
 O          4.9271409965       -2.5092030760       -1.1486974507
 H          5.7429605983       -2.2169237238       -0.6824263127
 H          4.5540080549       -3.2213800116       -0.6009550368
 O          3.6542935709       -0.2066148365       -1.3943631771
 H          3.0417642092       -0.2614962687       -2.1557256536
 H          4.0201993625       -1.1106186766       -1.2659640470
 O         -4.2447582635       -1.3992586367       -0.0524122500
 H         -3.6370881106       -1.9003557047       -0.6137318374
 H         -4.8668530579       -2.0279271164        0.3426507246
 O         -2.9832870282        1.3485660890       -3.9195420963
 H         -3.5680051468        2.0632029223       -4.1771003276
 H         -3.1371027740        1.2225636688       -2.9582298588
 O         -0.5039204234        5.5109556172        1.6896611382
 H         -0.4973586471        5.3333523125        0.7349944748
 H          0.4161849700        5.4094666033        1.9671438716
 O         -5.9509019969        2.0000090043       -2.4715306939
 H         -5.2113829634        1.5038465294       -2.0458999477
 H         -6.5582434432        2.2048418607       -1.7584239315
 O          3.5000414624        1.8770683425       -4.1959232101
 H          4.3835950997        1.6460795536       -3.8729513742
 H          3.0238086891        1.0307968114       -4.2414290784
 O         -0.6005919145       -0.2196504195       -3.7098741389
 H         -1.3209131917        0.0614597344       -4.2819242085
 H         -0.6067040967        0.4537292740       -2.9882183344
 O          5.2955717209       -0.2573015833        1.9385982471
 H          5.3273576285       -0.8527380758        2.7045904540
 H          4.3512620649       -0.3034124718        1.6629834599
 O          2.6910677642       -0.6500100766        1.7211519497
 H          2.4610725930        0.0169409857        2.4045798002
 H          2.5022278164       -1.5219280015        2.1090992315
 O         -4.2183686053        4.6568311317       -0.0936138239
 H         -3.4681797124        4.0182204777       -0.1243571102
 H         -3.9526157038        5.3470795742        0.5145065794
 O          2.1682885561       -0.4527745357       -3.6449333605
 H          2.3277140632       -1.3990963118       -3.8440206396
 H          1.2136723976       -0.3151260710       -3.7451450434
 O         -0.4047825208       -2.9280545898       -3.8783241414
 H         -0.4995507885       -1.9678646977       -3.6983699102
 H         -1.1940914201       -3.1683521928       -4.3663378327
 O         -5.9120559191       -3.8411438484       -1.7467564650
 H         -5.9510285022       -2.8790877713       -1.9538313640
 H         -6.6372001512       -4.2484830013       -2.2194389391
 O         -3.7950869151        0.8982193973       -1.4079432893
 H         -3.9865583966        0.1021491285       -0.8780026396
 H         -3.3676431086        1.5399682352       -0.8111709312
 O         -0.0312661219       -4.3574481263        0.9035888058
 H          0.1201080138       -5.2806470545        1.1120621376
 H         -0.1222904058       -4.3147921273       -0.0754892032
 O         -2.8247601854       -3.9802820091        1.1746572288
 H         -2.9850334154       -4.2247177817        0.2374206152
 H         -1.8668744057       -4.0542045563        1.2876670648
 O          0.8089239674       -2.5183656007        4.6459433451
 H          0.0934948244       -1.9036891098        4.3361959182
 H          0.4210459524       -3.0426500638        5.3464433576
 O         -1.1212001552       -0.9202053441        3.8679963789
 H         -0.8444212243       -0.1478286134        3.3355456351
 H         -1.9590422164       -1.2588953207        3.4691870096
 O         -1.8292270171        0.9411784491        5.7165215639
 H         -1.0359436660        1.4783130980        5.7461502047
 H         -1.6094035702        0.1646413352        5.1629008977
 O         -1.9370622077        3.4196637648        2.5429140872
 H         -1.4480548792        4.2467468424        2.3424045541
 H         -1.2747133124        2.7540658662        2.7996502431
 O         -0.5554158416        1.8378846800       -2.0347420992
 H          0.3931300067        2.1035378294       -2.0600862801
 H         -1.0316794829        2.5057602014       -2.5562754741
 O         -2.3783279302        2.7678970173       -0.0343187558
 H         -2.2086886532        2.8443358622        0.9308028115
 H         -1.5380696525        2.5950980323       -0.4777586422
 O          0.6475894453        2.4923515525        0.5740629458
 H          1.5141097393        2.1467831379        0.2737795306
 H          0.3810466866        3.1886865405       -0.0520347203
 O         -5.6814165924       -3.5531351404        1.0052694968
 H         -4.8487755960       -3.9513024577        1.2851218946
 H         -5.8449266174       -3.8442442724        0.0944135493
 O          5.0244465753        3.2478672325       -1.0490065559
 H          5.6196088632        2.9135823861       -0.3421104344
 H          5.2761511220        2.7831348161       -1.8516926973
 O          3.1945217112        1.7849360667        0.2907948875
 H          3.2743006828        0.9276935914       -0.1659486139
 H          3.6771438412        2.4099587843       -0.2840509413
 O         -6.0923611736       -1.2066131790        2.4968534548
 H         -5.1471139753       -1.3204531890        2.7111756972
 H         -6.3854464031       -2.0888222021        2.2447854578
 O          4.1423623914        2.7200093206        2.5978996375
 H          3.8411743658        2.2789686129        1.7693501609
 H          5.0929123920        2.8112317887        2.5085628665
 O          6.4809102202        1.9829819187        0.8324398481
 H          6.0401098753        1.2385460903        1.2776437372
 H          7.1196066821        1.5713056627        0.2315364461
 O          2.7220872795        4.9017111783       -0.7782938586
 H          2.5470761518        4.8465027415        0.1855763613
 H          3.6554861989        4.6830619449       -0.8878547457
 O          2.0895430556        4.4218089679        1.8389357017
 H          2.8561384776        4.0297340682        2.2839388297
 H          1.5388943442        3.6609749092        1.5600923984
 O         -3.8904290371       -1.2357771630       -3.9106757434
 H         -4.6896725024       -1.1960126874       -3.3586530727
 H         -3.6400093816       -0.3112654866       -4.0786379596
 O         -6.2532255381        1.6160856983        3.0838007783
 H         -6.3516575234        0.6565560977        3.0156596038
 H         -5.4505106292        1.7679103243        3.6080839846
 O         -3.3480843939        0.7561865392        1.7082627874
 H         -3.4129068977        1.1550202299        2.5974912646
 H         -4.0803904434        1.1519702869        1.2060698104
 O          5.2269975395       -1.7637655437       -3.7879078688
 H          4.4687517975       -2.1080869922       -4.2673222928
 H          5.1862453765       -2.1824999744       -2.9111834841
 O         -3.2267232158       -4.5168698045       -1.4310924997
 H         -4.1719770638       -4.4866790414       -1.6347618409
 H         -2.8881013287       -3.6233667741       -1.6881843492
 O         -5.4528628429        2.2206464982        0.6350157100
 H         -5.8334426337        2.1736028569        1.5436294920
 H         -5.2011185677        3.1389405513        0.4633171378
 O         -3.7016978493        2.0231669340        4.0782853156
 H         -3.2123831970        2.7729688661        3.7044739758
 H         -3.1370959516        1.6453947787        4.7809528629
 O          2.4164394845       -3.0903308135       -4.0540814637
 H          2.5971550541       -3.6268307437       -3.2595391592
 H          1.4671105956       -3.1942326940       -4.2133107968
 O          2.3054592347       -4.4560631185       -1.6580477481
 H          1.4313031071       -4.8510433608       -1.7656702610
 H          2.1404902136       -3.5809871858       -1.2499888806
 O         -4.3119852192        4.1330261966       -2.8084103439
 H         -4.9422422639        3.3815433574       -2.8009636626
 H         -4.3899074089        4.5183732425       -1.9216112626
 O         -0.1465091693        1.3885613175        2.8610961029
 H          0.0792183771        1.6445711573        1.9469922285
 H          0.7081052437        1.3496265913        3.3263523957
 O          6.9391501099       -1.5750347501        0.2912160674
 H          6.3725751169       -1.0643307083        0.9131319869
 H          7.4077848687       -0.9063931066       -0.2331726324
 O          1.9509782135        2.6260898035       -2.1190093185
 H          2.2356170681        3.4795115305       -1.7523887126
 H          2.5021923679        2.4489685262       -2.9061755571
 O          2.3462968622        1.0413159254        3.7674940305
 H          2.6683087320        0.3980290406        4.4397207225
 H          3.0553246390        1.6840995307        3.6023750703
 O          3.0934753158       -1.0099192998        5.2630662142
 H          3.8062916308       -1.4860262967        4.8120826714
 H          2.3009225283       -1.5620512371        5.1646345767
 O         -0.1167021379        4.6664696433       -0.9226841113
 H          0.7479597965        5.0026382192       -1.1858647985
 H         -0.6638221387        4.5651228866       -1.7199340068
 O         -0.4605863760       -4.6697872022       -1.7417400100
 H         -0.4525675067       -3.9847308343       -2.4407731346
 H         -1.3849607522       -4.9459926231       -1.6802856673
 O          4.6799635463       -2.4604811213        3.4767181663
 H          5.4070571695       -2.9916101299        3.0829973556
 H          3.8750470222       -2.8642602329        3.1327321142
 O         -6.1453738687       -1.2117425265       -2.2842092681
 H         -6.7965970893       -0.7624108427       -2.8245924557
 H         -6.2511203893       -0.8124068387       -1.3753132010
 O          3.9231085758       -4.4192492329        0.5492739550
 H          3.3942234325       -4.7525301093       -0.1946830595
 H          3.2962797472       -4.0320941354        1.1763204231
 O         -6.7482775447       -0.0739635731       -0.0031914675
 H         -6.5754766393       -0.5241143400        0.8405684852
 H         -6.3014531153        0.7827842698        0.0915697109
 O         -1.6915726550        4.0718602622       -3.1171697373
 H         -1.5512744246        4.3904650582       -4.0083294154
 H         -2.6730850900        4.0666807311       -2.9750885760
 O         -3.3535454466       -1.6962629542        2.6668481144
 H         -3.2038995048       -2.4596783780        2.0840128155
 H         -3.3739756023       -0.8938145054        2.0935412237
 O         -2.3377895570       -2.1238175556       -1.9387272050
 H         -2.8270762062       -1.7290935851       -2.6902014910
 H         -1.9790894561       -1.3858886125       -1.3694980921
 O          6.3532751114       -3.8264504875        1.9020437481
 H          6.7854477056       -3.1749681687        1.3326158373
 H          5.6643724501       -4.2427845963        1.3659418179
 O          5.6489519792        0.7377004247       -2.7985053385
 H          4.9210027897        0.4984876644       -2.1639180024
 H          5.6936903087       -0.0621511022       -3.3575737734
 O          2.0499253941       -3.2398076748        2.3640034344
 H          1.6145595539       -3.1066907452        3.2279245721
 H          1.3276747528       -3.4712241568        1.7505322297
 O          7.7593435168        0.5868746875       -1.2075342488
 H          6.9953386734        0.6556872771       -1.8382089379
 H          8.5555326140        0.6790628080       -1.7293790705
 O          1.4572111585       -1.9762808500       -0.6954499995
 H          0.5883854658       -1.5802650656       -0.8053543458
 H          1.9353629255       -1.4076608546       -0.0774058339
 O         -1.2697071840       -0.2542415281       -0.2641905605
 H         -1.8777380579        0.0508846780        0.4234750529
 H         -0.9689416239        0.5320188406       -0.7421495626
 O         -9.4300003566        0.6352687890        0.2019123242
 H         -9.5727113694        0.5628048354        1.1469331966
 H         -8.5083223141        0.3710896666        0.0489637567
