  114
       -193.42938383
 O         -3.2321063878        3.0211162102       -0.2404303313
 H         -2.5071551644        3.4999048110       -0.6860062773
 H         -2.9867546436        2.9584077756        0.6956971023
 O         -2.4758492996        2.7577904475        2.4389852882
 H         -3.2698758812        2.2067253663        2.6531707741
 H         -1.7795965515        2.4663795983        3.0417384489
 O          3.7523196476       -0.5879893655       -3.3817853178
 H          3.9275189266       -1.4982945574       -3.0373963401
 H          2.8229781314       -0.3996400601       -3.2082361697
 O          0.6856089610       -2.7658274676        3.0088651065
 H          1.4609045465       -2.6956922467        2.4291800394
 H         -0.0019246354       -3.1884615611        2.4667003838
 O          1.0384402376        3.5560634639        2.2477585668
 H          0.6318770086        2.9607908711        2.8973092721
 H          0.3233491879        4.1810983604        1.9986522530
 O          3.4253672860       -0.0361582068        2.7595082759
 H          4.3592052253       -0.0128475766        2.9828987968
 H          3.2670076635        0.7891249819        2.2456449206
 O         -1.1302290416        4.2545730663       -1.4259872285
 H         -0.1823754959        4.3434369827       -1.1917956653
 H         -1.1346984895        3.8417729356       -2.2988659819
 O          2.8054040923        2.0244398186       -1.2748564103
 H          2.2431775051        1.4218387711       -1.7956733679
 H          3.7187859307        1.8521987527       -1.5716892786
 O         -3.8841080274       -2.9766144143       -1.5134912696
 H         -3.9755425337       -3.4622817184       -0.6804579427
 H         -4.6681047898       -2.3974140034       -1.5613027205
 O         -1.5733168368       -1.7986565044       -0.8067217964
 H         -2.4534090614       -2.1380149320       -1.0752485945
 H         -0.9726521840       -1.9997853174       -1.5576426153
 O         -1.0741814073        2.0753261389       -3.2855360677
 H         -1.7766836191        1.5622334290       -3.7077472800
 H         -1.1100555946        1.7981769507       -2.3557316971
 O         -1.1001416567        4.9942631496        1.4938601675
 H         -1.2247685817        5.0095008153        0.5386491426
 H         -1.7602046735        4.3844674558        1.8569589438
 O         -3.7783495712        0.6130671689       -1.1418438688
 H         -3.4711294676        1.5130320280       -0.8691783227
 H         -3.4604762763        0.4860206291       -2.0586210055
 O          4.1375948998       -2.9468404096       -2.2354861098
 H          3.2512164518       -3.2223063142       -1.9422850018
 H          4.6438899048       -2.8222662186       -1.4157885540
 O          1.0810329835        0.3929450570       -2.7023927129
 H          0.4514437624        0.4194817853       -1.9430729390
 H          0.6694691399        0.9917116695       -3.3437529494
 O          5.3015535099       -2.5544845364        0.2633449160
 H          5.6703425553       -1.6334052889        0.2028660825
 H          6.0400779565       -3.1232898160        0.4799484239
 O          6.2902021101       -0.1312360734        0.0852831001
 H          6.1384127490        0.4646326425        0.8387919599
 H          5.9272688236        0.3219010566       -0.6967567131
 O         -1.2018752987       -3.5824792363        1.1748922291
 H         -2.1413502282       -3.7676248009        1.3295613892
 H         -1.2112861034       -2.8739021802        0.4928292129
 O          5.7455845508        1.6820860019        2.1010199276
 H          4.8784127377        2.0413515063        1.8325491566
 H          6.3404937985        2.4269114746        2.1864962050
 O         -3.9419184740       -3.4216580334        1.2243989717
 H         -4.5874782756       -3.5989884452        1.9075918250
 H         -3.7953913865       -2.4396911084        1.2222776187
 O          1.2176790452       -0.3622588892        4.4030361827
 H          2.0751085598       -0.2293766377        3.9660150652
 H          0.9291798044       -1.2424373980        4.1130665952
 O          1.4622154647        4.3575457572       -0.6820459057
 H          2.0006380792        3.6102403055       -0.9908198123
 H          1.5129768129        4.3643547426        0.2786773412
 O         -4.5324224302        1.1152902073        2.6937369067
 H         -4.1598888013        0.3178053098        2.2688023642
 H         -5.1943512290        1.4392917723        2.0585359150
 O         -0.2551330249        1.8414324070        4.0765635320
 H          0.2741831158        1.0150121264        4.2063876989
 H         -0.3082624729        2.2511187413        4.9409646995
 O          1.7086778493       -3.3124351352       -1.0479717117
 H          1.9650868871       -2.8154858305       -0.2512262763
 H          1.3334972910       -4.1562495464       -0.7228225312
 O         -3.4165022359       -0.8327142673        1.1587668420
 H         -2.4521050915       -0.7390003338        1.3961941518
 H         -3.5137207169       -0.4073936933        0.2869216087
 O         -3.1072089395        0.2194833645       -3.7310667863
 H         -2.8337903105       -0.7332268323       -3.8189156060
 H         -3.8786637543        0.3184133537       -4.2896135259
 O          3.1843579985        2.2209628620        1.3815853086
 H          2.4566978728        2.7764175430        1.7246544545
 H          3.0250319022        2.1042089718        0.4236916338
 O          0.5231491768       -5.3852907183        0.1797327302
 H         -0.1907143696       -4.8201356165        0.5455087994
 H          0.9726055320       -5.7766972077        0.9294255454
 O          0.0912780487       -2.2062348647       -2.8494230958
 H          0.5117276307       -1.3487862123       -3.0204184086
 H          0.7344576339       -2.7163552245       -2.3137911744
 O         -5.8774378942       -1.1249673093       -1.3592851335
 H         -6.4957249914       -0.9437352150       -0.6499353445
 H         -5.2120388092       -0.4163160910       -1.3274202468
 O         -5.8823186411        1.8824126610        0.4071421967
 H         -5.6450226405        2.8086873248        0.3169971608
 H         -5.2739470628        1.4144608283       -0.1810997555
 O          2.7589841971       -2.1797625939        1.2183165278
 H          2.9277149075       -1.3662663227        1.7308756650
 H          3.6433953363       -2.4687031928        0.9353442107
 O         -2.4914380442       -2.3289104366       -3.8842298708
 H         -2.9940263427       -2.7704549472       -3.1845036132
 H         -1.5524889939       -2.4532190024       -3.6781112791
 O          5.2125501600        1.1345840450       -2.1143069036
 H          4.7126539922        0.4288383066       -2.6228782685
 H          5.8288638760        1.5215089545       -2.7360833828
 O         -0.7475221649        0.7343625581       -0.7632085780
 H         -0.4633221115        0.8930309076        0.1410267773
 H         -1.1845369007       -0.1457885755       -0.7355650777
 O         -0.8013996859       -0.4240489086        1.9325559589
 H         -0.3252917605       -1.2057910475        2.2527988023
 H         -0.7676156449        0.2275484079        2.6385701399
 O         -7.2649223387       -0.2042359756        1.4311163731
 H         -7.0376857754       -0.1266434091        2.3600975769
 H         -7.0608485649        0.6569633969        1.0425655148
