  102
       -167.76626240
 H         -0.0177931986        0.9887437316        3.2464142039
 C         -0.7838928897        0.6049649940        2.5681554429
 H         -1.6147318530        0.2148973281        3.1624505097
 C         -0.2200480855       -0.5083803970        1.6926939427
 H         -1.0052767927       -0.9086805363        1.0557001539
 H          0.1651055249       -1.3017215980        2.3274374019
 O         -1.2161141568        1.6987535305        1.7768250874
 H         -1.6197795445        1.3078192324        0.9413813808
 N          0.8535921491        0.0260095907        0.8390936471
 H          1.0407510307       -0.5753052915       -0.0089739631
 H          1.7368279435        0.1176932805        1.3881649535
 H          0.5469653192        0.9341200375        0.4196618964
 O          5.7302754850        0.2152730712       -0.0849627265
 H          5.4535931553        0.9389706583        0.4999245236
 H          5.3452861428        0.4026081461       -0.9613717711
 O          1.5307740455       -4.0451329876       -1.6989216634
 H          0.7032914365       -3.7029500168       -2.0742597750
 H          2.2490550184       -3.7181757180       -2.2504238608
 O          1.7242178132       -2.3350613870        3.4427016452
 H          1.8693501461       -2.7044159090        2.5613755735
 H          2.2724962470       -1.5453786787        3.4929071510
 O         -2.3384626667       -3.1714989897       -0.1903466025
 H         -2.7697696983       -2.5336520971        0.4066260732
 H         -1.7428750847       -3.6954959447        0.3705460986
 O         -0.7202358905       -2.5351921062       -2.2449852523
 H         -1.2868442317       -2.0469674428       -2.8692038269
 H         -1.3114245574       -2.7753355806       -1.5005755082
 O          1.1883647463        0.8350796193       -3.7205246486
 H          1.2718253037        0.1894996666       -2.9896657017
 H          1.7315543256        1.5865738137       -3.4674531313
 O         -4.3632509506        2.3222274507       -0.7827373558
 H         -3.9750858394        2.8196175219       -1.5253415092
 H         -4.1721620476        2.8310771186        0.0197406604
 O          1.8899216653       -2.8729170593        0.6515860294
 H          2.8274610985       -2.6458950740        0.6802295210
 H          1.7688931144       -3.3301075752       -0.2162254685
 O         -2.5616323517       -1.0485329096       -3.5954602730
 H         -3.2814143263       -1.3428896276       -2.9786157803
 H         -2.8627703670       -1.2489363116       -4.4819745622
 O          4.3453953009        0.5757256762       -2.3994183003
 H          4.7010031557        0.8841349669       -3.2336292592
 H          3.6416510175        1.2188839649       -2.1375362897
 O         -0.9255585531       -3.1538692853        3.8427291953
 H         -0.8766578042       -3.6840996823        3.0327684192
 H         -0.0162445937       -2.8753638359        4.0217014314
 O         -2.7800974447        3.4908106879       -2.6759077925
 H         -2.9798684781        3.8912816730       -3.5222890408
 H         -2.2318828307        2.6891688382       -2.8625336767
 O          3.6172496194       -2.0486793414       -1.9730705268
 H          4.0411362998       -2.1915799190       -1.1148464218
 H          3.9826109472       -1.2114793386       -2.3053185529
 O         -1.3219077304        1.3118036123       -3.0165227472
 H         -1.8124187060        0.4837738833       -3.1613284716
 H         -0.4565398013        1.1914031431       -3.4697822273
 O          4.5882590067       -1.9590049913        0.7033456646
 H          5.0976244434       -1.1480551141        0.3942092871
 H          5.2395764105       -2.5551824905        1.0756987563
 O         -3.2452736698        3.4979028274        1.5044179616
 H         -3.5589486778        4.0136923232        2.2482289134
 H         -2.6057136280        2.8452279935        1.8493636634
 O         -1.4065990996        4.2762562770       -0.4284702981
 H         -1.8514379798        4.2267853703       -1.2910652383
 H         -2.1050096887        4.1313762739        0.2311169880
 O          0.5500425302        3.8564722383        1.5358494969
 H          0.0213302747        3.0605444008        1.7138280223
 H          0.0269000356        4.3641693641        0.9029842049
 O         -4.3385852249       -1.9726721770       -1.9025778441
 H         -3.8354182184       -2.5955975679       -1.3636756553
 H         -4.7737463802       -1.3534124012       -1.2933289190
 O         -2.9763969877       -1.4631149458        3.8395617609
 H         -2.2031932622       -2.0756910028        3.8732272791
 H         -3.5974405670       -1.7943889792        4.4899070601
 O          0.0657901993        2.0285275140       -0.8085199070
 H         -0.4941627540        1.5725053317       -1.4697644983
 H         -0.3919600263        2.8751909035       -0.6365521174
 O          4.6706414320        2.0822577268        1.6868921389
 H          4.0765382088        2.7518008479        1.2806851281
 H          5.2390767421        2.5449337209        2.3039734587
 O         -2.3432421207        0.5603818069       -0.2969050773
 H         -2.8225436272       -0.1555808523        0.1576704980
 H         -3.0314569714        1.1548958398       -0.6419631917
 O         -5.6087954793       -0.0898397295       -0.2588873480
 H         -6.5457994425       -0.0671800052       -0.4575490814
 H         -5.2547741399        0.7885404067       -0.4861339403
 O          2.5498909217        2.4033142155       -1.7161021640
 H          1.6307223185        2.2103824718       -1.4256558368
 H          2.8959960270        2.9924948591       -1.0304901134
 O          1.2370177286       -0.9014569439       -1.6007189901
 H          2.0679373035       -1.4027108388       -1.7442013847
 H          0.4929770493       -1.5009537249       -1.8471577131
 O          3.1631856968       -0.1217891316        2.2541767703
 H          3.6594402377       -0.8127504699        1.7826229773
 H          3.7083286135        0.6815019632        2.1917298138
 O         -3.5889042442       -1.2677347230        1.2625239900
 H         -4.5073654508       -1.0182118266        1.1070809142
 H         -3.4363128557       -1.3137371734        2.2333581474
 O          3.0113767004        3.8758235046        0.5911375396
 H          2.0995570510        3.8207607313        0.9783455651
 H          3.2503718348        4.8037252588        0.6081540742
 O         -0.3736882186       -4.3150061144        1.3632023113
 H          0.4222402175       -3.7976027053        1.1519720124
 H         -0.1629294757       -5.2312674364        1.1760181607
