  101
       -167.53829873
 H          0.3867490275        0.9216823548       -0.6283270929
 C          0.2080895555       -0.1205704971       -0.3607631978
 H          0.8501654385       -0.7626117608       -0.9702346282
 C         -1.2442178176       -0.4841577597       -0.6276171691
 H         -1.4963558473       -1.4097419735       -0.1055347303
 H         -1.3382386107       -0.6675420484       -1.7026551474
 N         -2.1666932681        0.5514858851       -0.1652222863
 H         -1.8785693194        1.4522969460       -0.5440739346
 H         -3.0834847728        0.3471150184       -0.5521098415
 O          0.5930285511       -0.2596428161        1.0005700055
 H          0.2202658555       -1.1246696170        1.3303853460
 O          3.4085040889       -1.8563537218       -1.6268307923
 H          2.6204626418       -2.1778367276       -2.0916783523
 H          3.5197835337       -0.9260020834       -1.9007660746
 O          0.9305361258       -2.4776701285       -2.6875295794
 H          0.6786419435       -3.0049347284       -3.4475369097
 H          0.5222415398       -2.9080785632       -1.9073179580
 O          2.9450417890       -1.9774937117        1.0476289253
 H          3.1696908809       -2.0581698697        0.1005237702
 H          2.2523356368       -1.3070697316        1.0914773271
 O         -5.6819535870       -0.9952725257        0.0313735897
 H         -6.6290236379       -1.1205513703       -0.0238334746
 H         -5.5362264600       -0.2448100009        0.6744359836
 O         -2.6551780188       -2.0783196328        2.8802651737
 H         -2.7096178978       -1.0919755493        2.7236451180
 H         -2.9931662678       -2.2376129103        3.7611534275
 O          1.7717016312       -2.3210117197        3.5784932752
 H          2.4657520665       -2.5056258155        2.9332510427
 H          1.8755302067       -1.3811052886        3.8101414857
 O         -2.7010364157        0.4814227015        2.4136643839
 H         -2.4649062886        0.5338150608        1.4326141361
 H         -1.9665563736        0.9209113043        2.8694799091
 O         -0.1195815790       -3.7684754290       -0.5457041603
 H         -0.1424904269       -3.3551338641        0.3449009923
 H          0.1661635189       -4.6729397861       -0.4098214815
 O          0.3206506751        0.1309780882       -3.7210599119
 H          0.7605701111        0.8283382623       -3.2181782167
 H          0.5911992311       -0.7134813183       -3.3363421798
 O          1.5901509028        2.2084081602       -2.0833626433
 H          1.7118762823        2.7613248165       -1.2905111255
 H          2.4349771924        1.7478493315       -2.2058102876
 O         -4.0051526858       -0.8564838459       -2.1507828659
 H         -4.6740750625       -0.9661034176       -1.4526976289
 H         -3.5278414189       -1.7086414043       -2.1521844948
 O         -4.7401144213        2.9896426989       -0.1457050755
 H         -5.3788817970        3.7006759121       -0.2066120506
 H         -4.7166872032        2.5657456396       -1.0385253870
 O          3.8912393745        0.7032774613       -2.4769999373
 H          4.1417439131        0.6897244988       -3.4020656491
 H          4.7215129226        0.8452322871       -1.9627303509
 O          1.9397675765        3.5851621834        0.2867725832
 H          1.1199931851        3.7117660253        0.8631586955
 H          2.3819446489        4.4338754748        0.2796356420
 O         -1.2285575801        2.6960292135       -2.0171397698
 H         -0.2832133271        2.6796843691       -2.2032545139
 H         -1.6516557175        2.1451536471       -2.7039975137
 O         -0.0832548091        3.8604856144        1.8509920078
 H         -0.2125042179        3.0405469723        2.3585616590
 H         -0.8945680510        3.9874366202        1.3158687271
 O          5.5288668860        1.0374070291        1.3672096993
 H          4.5731652115        1.2017541615        1.4227055059
 H          5.6430396349        0.0978391395        1.6577513696
 O         -0.2273681797       -2.5948441331        1.8750361178
 H         -1.1053403582       -2.5179953998        2.2986311635
 H          0.4467736555       -2.6403521202        2.5958222897
 O          6.1553735626        0.8782271689       -1.1207702518
 H          5.9218498497        0.9715208544       -0.1401609899
 H          6.9042105465        1.4555375267       -1.2675996380
 O         -2.7209539037       -3.2279256078       -1.6761388520
 H         -1.8185620436       -3.4402727066       -1.4092059308
 H         -3.2519875496       -3.3341991847       -0.8594951059
 O         -4.0442004610       -3.1353185134        0.6839240512
 H         -4.6814244742       -2.4266233583        0.4950543800
 H         -3.5399093484       -2.8362973081        1.4559059788
 O         -0.2063936592        1.3713671788        3.0424219060
 H          0.4811927585        1.1612496065        3.6863832242
 H          0.0381460755        0.8661207561        2.2431747999
 O          2.2653490505        0.4059245827        3.9803744481
 H          2.5651335223        0.7936740537        3.1299351272
 H          2.9862245745        0.5233697164        4.5999329607
 O          6.1545447636       -1.9337850216       -0.8325156766
 H          5.2715619367       -2.1393376441       -1.1659680372
 H          6.2943390264       -0.9942049614       -1.0247736905
 O          5.5583914704       -1.5695076653        1.8187650789
 H          5.9762788657       -1.8510546480        0.9828030758
 H          4.6150679493       -1.7693668097        1.6926487121
 O         -2.1780584851        4.0389629969        0.1838402244
 H         -3.0759278614        3.6769421025        0.2322443285
 H         -1.8169673841        3.7190634760       -0.6577996637
 O         -5.2763042904        1.0058692593        1.6610893095
 H         -5.1196786442        1.7669515055        1.0723106974
 H         -4.4257690128        0.8533105730        2.1071414877
 O         -4.7275184741        1.8457506820       -2.5428599728
 H         -4.0027749729        2.0896358334       -3.1282278644
 H         -4.6687698578        0.8822724012       -2.4670566073
 O         -2.3068628690        0.8968723369       -3.7497899006
 H         -2.8071969693        0.1726361461       -3.3495802338
 H         -1.4171966171        0.5486897318       -3.9421515277
 O          2.7970172569        1.3634451646        1.5062519177
 H          2.1093798774        0.7838744292        1.1491489045
 H          2.5893078170        2.2474822127        1.1383143774
