  116
       -193.00643015
 H          2.0781017406       -1.0275576366        1.8128214869
 C          2.8314418192       -0.6263673870        1.1345570851
 H          3.8138016919       -0.9873453031        1.4483302797
 C          2.8150552745        0.9039174373        1.1633671173
 H          3.6162544877        1.2882279999        0.5320908672
 H          2.9930157461        1.2248954458        2.1917976358
 N          1.5667552071        1.4898895728        0.7025574378
 H          1.4063208374        1.2664328258       -0.2765474261
 H          0.7912083577        1.1068607405        1.2353358686
 O          2.5065122170       -1.1306339265       -0.1518596434
 H          3.0924720440       -0.7130545330       -0.8305169792
 O         -1.3199302360        2.3908107145        0.2536929361
 H         -0.9085678112        2.9237533629        0.9676510624
 H         -0.6832123950        2.3038179190       -0.4672916263
 O          0.1889980692       -1.8845252440       -2.9821610278
 H          0.8281205188       -2.5519214852       -2.6545369153
 H         -0.1642181609       -1.4714457936       -2.1741470774
 O          5.0648327888       -2.9139891706        0.1410023602
 H          5.3415439530       -1.9752532846        0.1264761000
 H          5.8055616755       -3.4045364375        0.4989760677
 O          4.4989981599       -2.8094428198       -2.5882394245
 H          3.6055262293       -3.1860265085       -2.5628399635
 H          4.8481595312       -2.9654668362       -1.6947722623
 O         -2.1905745292        0.4767892742       -2.1564276308
 H         -1.3486241598        0.9646209210       -2.1415431442
 H         -2.3422056998        0.1824673035       -1.2313431030
 O         -2.4427402652       -1.7078323436       -3.8008381321
 H         -2.4684319093       -0.8861217968       -3.2788478129
 H         -1.5052557779       -1.9421454109       -3.8361344094
 O          0.3273118276       -2.6842280179        2.5020916955
 H          1.1756360738       -3.0707665562        2.2146023890
 H         -0.3157029641       -3.3938288960        2.4976663634
 O         -3.8864159864        3.1984515180        0.0353822934
 H         -4.2364852989        2.9181995447       -0.8255137669
 H         -2.9335715407        2.9730272008       -0.0024111343
 O         -4.4501376621        1.8410995964       -2.3230279890
 H         -3.5883271966        1.3553281191       -2.3301719853
 H         -4.6300530886        2.0987124448       -3.2265512404
 O          4.1881262478        3.9886794973        2.0003344054
 H          3.9519548868        3.7176058498        2.8885186659
 H          3.3354536372        4.1594570220        1.5344451128
 O          0.6666903658       -5.1738987152       -0.1276330588
 H         -0.1123531711       -4.5685211006       -0.0451004151
 H          0.3222764234       -6.0188607241       -0.4157848665
 O         -5.0693395806       -2.5167688229       -0.5414860323
 H         -5.8177198318       -3.1124852930       -0.5134727144
 H         -4.4169662430       -2.9179983760       -1.1887750500
 O          1.6429714972        0.1371607198       -3.7568394128
 H          1.0917682907       -0.6683283967       -3.5598057111
 H          1.6017987480        0.2888440732       -4.7004547204
 O         -0.4458037677       -0.1093563645        2.1382198974
 H         -1.2445757302        0.1810902763        2.6337488609
 H         -0.2469695173       -1.0213471762        2.4122585263
 O         -3.2677731691       -3.5859577297       -2.0697718803
 H         -3.0381844859       -2.9494839559       -2.7829564135
 H         -2.4979008217       -3.6185112082       -1.4743833603
 O          1.7755857129        4.1297568513        0.8654478898
 H          1.0278889067        4.3971365403        1.4134030369
 H          1.6997193884        3.1320107723        0.8081412611
 O         -1.3151348853       -3.4321187404       -0.1073036358
 H         -1.9842610906       -3.2149419016        0.5777483272
 H         -0.8580369448       -2.5738250054       -0.2664133632
 O          5.7038443563        2.4618377837        0.4304760473
 H          6.5261608239        2.9428269984        0.3265288454
 H          5.1508249196        3.0054625127        1.0425303032
 O         -2.3654621743        0.9707960202        3.6297918230
 H         -2.7114013314        1.8159184370        3.3041696531
 H         -3.1352059079        0.3583784662        3.6612947597
 O         -0.5202210265        3.7914939838        2.3900036612
 H         -1.4321907087        3.9238787874        2.6793303882
 H         -0.1342421364        3.1328191394        3.0115160978
 O         -4.4479539994       -0.6650342096        3.3248282142
 H         -4.0731673710       -1.4109267038        2.8270349394
 H         -4.9007938744       -0.1091365289        2.6728258653
 O          2.5970750879       -3.8556037392        1.4911867436
 H          3.3584361760       -3.5197322200        0.9993970751
 H          2.1366010199       -4.4852152152        0.9216125369
 O         -2.7317185456        0.1240329066        0.4548564474
 H         -2.1504971603        0.8932781136        0.6056269652
 H         -3.6300568415        0.4203862991        0.7288901566
 O         -3.2024602605       -2.3215936373        1.4328248576
 H         -3.9648967273       -2.4734748051        0.8414543846
 H         -2.8689714277       -1.4456296140        1.1471852999
 O          3.8870616832       -0.2503951345       -2.2844898597
 H          4.1945831084       -1.1555871940       -2.5407157216
 H          3.1289360505       -0.0635838489       -2.8706903016
 O          5.8197095434       -0.3093041781       -0.1934419440
 H          5.3860507763       -0.1787710405       -1.0463582881
 H          5.8723317761        0.5716868285        0.2039742055
 O          0.3268503040        1.8093671203        3.9988604274
 H         -0.4980137630        1.6521530911        4.4725960909
 H          0.3622080532        1.0871588921        3.3490058153
 O          1.7769672163        3.9234619046       -1.8867723325
 H          2.6633965199        3.5387245492       -2.0124415771
 H          1.7654829110        4.2257000405       -0.9628971402
 O          4.1875926169        2.5782958078       -1.9198971513
 H          4.7287378190        2.6227101879       -1.1152360356
 H          4.1355390601        1.6450101282       -2.1582860827
 O         -0.1902864498       -1.0368666412       -0.4263169810
 H          0.7783084006       -1.0581461633       -0.3110536338
 H         -0.5259183788       -0.6047551097        0.3806051021
 O         -3.3208195342        3.4831922645        2.7554888501
 H         -3.5768625876        3.4849511261        1.8186138457
 H         -4.0919889613        3.7596233953        3.2515924246
 O         -5.1192667966        1.0440079602        1.2134853124
 H         -4.8851725120        1.9381752131        0.9098072775
 H         -5.6690709632        0.6591751519        0.4886205172
 O          0.2705359210        1.7751833814       -1.9883091322
 H          0.7417145924        2.6477571667       -2.0209866692
 H          0.7566058732        1.2225182490       -2.6214216521
 O          1.9770350412       -3.3887119437       -1.6813159074
 H          2.1944670344       -2.7357895271       -0.9936248109
 H          1.5491140673       -4.1313838121       -1.2171495091
 O         -6.1250435951        0.0089345567       -0.9869725732
 H         -5.7099526590       -0.8704960102       -0.9458017873
 H         -5.5854271237        0.5572945579       -1.5781767689
