  147
       -244.14993481
 H         -0.7580360493        1.4503615590       -0.5510474977
 C         -1.1775147130        0.4464531187       -0.4749197078
 H         -2.1781489982        0.4934562646       -0.0467026493
 C         -0.2760722383       -0.4232190701        0.3928467261
 H          0.6856287975       -0.5495643005       -0.0990316229
 H         -0.7242252661       -1.4070158615        0.5265966907
 O         -1.2540986241       -0.0566362156       -1.7965126122
 H         -1.6025352248       -0.9806079532       -1.7680538166
 N         -0.0740326541        0.1970310650        1.7078724890
 H          0.6803266754       -0.3274550342        2.1993079550
 H         -0.9457131617        0.1138599710        2.2654036390
 H          0.1665823486        1.2263142442        1.6338465212
 O          3.3496272420       -0.5038467882        0.3669334609
 H          2.8328216900       -1.1808873592       -0.0937863903
 H          4.0976457975       -0.2728344132       -0.2203258841
 O          1.8068373285       -2.3145447820       -1.1063194863
 H          1.5984063665       -3.1358623000       -0.6354658752
 H          1.2751638609       -2.3063154360       -1.9247964892
 O          0.1604157101        2.8433388761        1.7845838836
 H          1.0615353607        3.0793524475        2.1080647746
 H          0.0553571324        3.2566798301        0.9096619362
 O         -3.6557394201       -4.4361973685        0.6680520301
 H         -4.1859449267       -5.2013447634        0.8909538948
 H         -3.9703312214       -4.1283237480       -0.2293925616
 O         -2.3823280044       -0.5581834289        3.0456907218
 H         -2.4197746236       -0.0433210369        3.8713130406
 H         -1.8306524824       -1.3628323112        3.2343691745
 O         -6.5030220439       -1.6440067778       -1.8379869630
 H         -6.6428352739       -1.4443103661       -0.8704665138
 H         -7.2797370068       -2.1250632459       -2.1253658824
 O          1.4814251441       -4.6301248718        0.4130253214
 H          1.7732944067       -5.5194704133        0.2093643154
 H          2.1943635841       -4.2267311663        0.9526999012
 O         -2.1180029286        3.1088627147        3.2351328593
 H         -2.7188375642        2.7270173979        2.5715231995
 H         -1.2449963558        3.1463541194        2.8022554881
 O          1.6841779749       -1.6266591502        2.6306181715
 H          2.1910447359       -1.2958994002        3.4023585889
 H          2.3049843014       -2.1626972143        2.1031044558
 O         -0.6401953511        3.9837265389       -0.6193655728
 H         -0.6427322570        4.9351089651       -0.5043677067
 H         -1.5906181445        3.7140621509       -0.6982783539
 O         -5.8192951982        0.6914833333       -3.0145538069
 H         -6.3145505709        0.7658332156       -3.8307939688
 H         -6.0245305847       -0.1902711164       -2.6320620198
 O          0.3336184148       -0.5243118778       -5.1585453929
 H         -0.0439861511       -0.7591571119       -6.0067738326
 H         -0.1186993827        0.3195568352       -4.9029127530
 O         -3.5584839235        1.5482366117        1.5017027114
 H         -3.2960635614        0.7319409388        1.9463745007
 H         -4.5346757095        1.5441899483        1.4773325511
 O         -0.7609873293       -2.6083755068        3.2133836765
 H         -0.9547863235       -3.0468356619        2.3678932721
 H          0.1686549938       -2.3168934524        3.1242247186
 O          1.8862186468        1.6936201609       -0.1002716754
 H          2.4620835125        0.9641706240        0.1905206570
 H          1.6516807580        1.4559361918       -1.0184215224
 O          1.1955828820        0.7993958351       -2.5271200252
 H          0.3259002907        0.3734108261       -2.4240039949
 H          1.0053778288        1.6999558479       -2.8741978047
 O          5.5320881716        2.4977761671        0.6362594264
 H          4.8487502041        3.1351746485        0.3247251628
 H          5.1769878435        2.1202937269        1.4541557605
 O         -2.0649980090        1.2444923006        5.0396186787
 H         -2.0726185389        2.0219631793        4.4063185641
 H         -2.4458662305        1.5615205849        5.8582241576
 O          0.4642510694       -2.5552428888       -3.4503648782
 H          0.9204078376       -3.2057626599       -3.9861285289
 H          0.3887624451       -1.7450445432       -4.0122973477
 O          3.3788730899        3.8718449556       -0.1099021701
 H          2.7723887506        3.0914928825       -0.1317743058
 H          3.3936544522        4.1903865046       -1.0244468541
 O          4.2098885417        0.8720054336        2.5364034684
 H          3.7380541712        0.3693375111        1.8461482054
 H          5.0471796014        0.3857918241        2.6248235421
 O          5.6478005203       -2.3867570324       -0.0408056962
 H          6.2380839076       -3.1240482353       -0.2001691141
 H          5.1996897299       -2.2055903383       -0.9063823980
 O         -1.0929154129       -3.5918132569        0.6434327849
 H         -0.3201741053       -4.1746428976        0.6010109858
 H         -1.9077262859       -4.1227998706        0.7091298851
 O         -4.0224882622       -0.4031408894       -0.7953094857
 H         -4.0960999698       -1.0089993097       -0.0388661013
 H         -4.8408842206        0.0935042193       -0.8180398194
 O         -6.7601061617       -1.0906781683        0.7057240792
 H         -5.9846704510       -1.4879882236        1.1347331078
 H         -6.7031925710       -0.1390826346        0.9005745355
 O          3.5280733459       -3.2949809348        1.5480611447
 H          3.9464332986       -3.2306329921        2.4370408294
 H          4.1974039112       -2.9465375338        0.9332748348
 O          6.2648523600       -0.8882906786        2.1909680355
 H          7.2109186622       -0.7414486417        2.1791057578
 H          6.0297670765       -1.3429306712        1.3593281589
 O         -0.9708746353        1.7200055090       -4.6501866828
 H         -1.8116970904        1.6927991247       -4.1657855333
 H         -0.4599353814        2.4375195762       -4.2495709342
 O         -5.9012422192        2.7615363070       -1.1445962586
 H         -5.0065719106        3.1411403103       -1.1077359516
 H         -5.9076032264        2.1300385902       -1.8821018027
 O         -4.2619690665       -1.8945963057        1.5115599346
 H         -3.6457468965       -1.5207886207        2.1593852858
 H         -4.0056275321       -2.8207113897        1.3608909414
 O         -6.2467353771        1.5736625620        1.1462837017
 H         -6.1967021570        2.0475910441        0.2691248523
 H         -6.8301019563        2.0950275816        1.6983263565
 O          4.6949063724       -2.5690274793        3.8199097499
 H          5.3815285056       -2.0029208700        3.4376703234
 H          4.1507005858       -1.9891199170        4.3690692419
 O          5.3701906349        0.5481174253       -1.0582969442
 H          5.5051635404        1.3208559109       -0.4346509275
 H          6.2335520605        0.1766318375       -1.2366624003
 O          4.4665752383        1.8326244773       -3.3205778547
 H          3.9945817010        1.1105350017       -3.7671545487
 H          4.8059973753        1.4337945167       -2.5002001500
 O          0.3096716197       -0.0377406411        4.6759231246
 H          0.0463225255       -0.9199487575        4.9475348515
 H         -0.4322578915        0.5481658413        4.9046208383
 O          3.2053550720        4.0926401320       -2.8597069982
 H          3.5953560455        4.7377722798       -3.4495923888
 H          3.6751173229        3.2352978601       -3.0433774367
 O         -4.3865069156       -3.4841583699       -1.6551919536
 H         -3.5452525634       -3.0710920353       -1.9064057845
 H         -5.0587399079       -2.7841955964       -1.7119460887
 O         -3.1444450343        3.1042624356       -0.8115461149
 H         -3.1061239784        2.5340205984       -1.6153268577
 H         -3.2300217536        2.5150592756       -0.0446177118
 O         -1.7608233230       -2.6543719139       -1.8467604014
 H         -1.0412333292       -2.8097764483       -2.4774882237
 H         -1.4749492153       -2.9974710127       -0.9787817055
 O         -3.1518025364        1.4837114578       -2.9386951536
 H         -4.0507849741        1.1321453263       -3.0370005598
 H         -2.6262727879        0.7773767425       -2.5155456327
 O          3.0172932910       -0.3996160426       -4.0293570978
 H          2.3413281603       -0.0213207713       -3.4211852278
 H          2.5473261207       -0.5186779882       -4.8580883727
 O          2.6564415239        3.3437516695        2.5384912323
 H          3.1915966878        2.5490411701        2.6494484930
 H          3.0081246793        3.8097187913        1.7670376375
 O          0.6067630241        3.3373853627       -3.0086285547
 H          0.1889179745        3.5920793640       -2.1657883192
 H          1.5028884040        3.7259765057       -3.0007309948
 O          4.2603508292       -2.1691694895       -2.2615716031
 H          3.3754546945       -2.3109674828       -1.8762909510
 H          4.1169741030       -1.5019044930       -2.9494231776
 O          3.0170998131       -0.4363575623        4.6207035749
 H          3.4383098894        0.2413047976        4.0617065507
 H          2.1820930461       -0.0578107378        4.9336510811
