  84
       -142.51726230
 O         -2.2877401357        2.2986551026        3.8207796684
 H         -1.5866382261        1.7313800183        4.2560310319
 H         -2.4582153777        3.0295863461        4.4133417652
 O          0.5886775922       -3.4155019375        2.5296325134
 H          0.8668637575       -4.2114363651        2.9823573134
 H          0.6907417024       -3.5982044112        1.5645247499
 O          1.2325535805        1.0575723642       -3.0784892861
 H          1.1283580043        0.7408618948       -2.1499513276
 H          2.1923706307        1.0441102635       -3.2169940444
 O          3.2149947896       -1.9849006559       -2.4801259370
 H          3.5244701465       -2.3956813223       -1.6593480423
 H          2.2570904645       -2.1792057567       -2.5214634115
 O         -1.2263280601       -1.4232480113        3.2398239812
 H         -0.7218479044       -2.2466189257        3.2381369696
 H         -1.1761760592       -1.1107202371        2.3151161615
 O         -6.3057568682       -0.5837660663       -0.8476222613
 H         -6.6807762476       -1.3069547024       -0.3438622069
 H         -5.4390440169       -0.3588645923       -0.3977146256
 O         -0.4710860648       -0.9015311989       -3.9701566811
 H          0.1426437095       -0.1600205819       -3.8383352027
 H         -1.3630944517       -0.5288955452       -3.8084104163
 O          1.2020603898        0.5621564072       -0.4704560969
 H          2.1216535183        0.3574020224       -0.2183991685
 H          1.0819135849        1.5182002273       -0.2907891131
 O          0.5892192381       -2.7461930568       -2.4892551581
 H          0.1224518488       -2.0233361046       -3.0015174987
 H          0.5031922928       -3.5282718609       -3.0363022082
 O         -5.0734660468       -1.1819465699       -3.1541390455
 H         -5.5602751022       -0.9587687158       -2.3272248539
 H         -5.6545855950       -0.9402026818       -3.8762160192
 O         -0.2454259419        3.2471382165       -2.7606748016
 H         -0.5369714852        3.6112265880       -3.5965603620
 H          0.2942154242        2.4485513520       -2.9743726791
 O         -3.6799963656       -0.0003479594        3.0385188526
 H         -2.9933567979       -0.6327133771        3.2866548751
 H         -3.3767572951        0.8578952021        3.3658550216
 O          3.1227230489        2.8546188684        1.2096219832
 H          2.4853438518        3.2940646514        0.6302545940
 H          2.5669995591        2.4499416649        1.9058640645
 O          3.9180501071        0.5263873828       -2.8051862751
 H          3.6461532714       -0.4247874321       -2.6929780544
 H          4.6327388897        0.5225849467       -3.4414367040
 O          1.2064056561       -3.8575489732       -0.0118564804
 H          0.8560279755       -3.4005502201       -0.7925635054
 H          2.1625578603       -3.7002566361       -0.0324512309
 O          0.7570971292        3.2338626413       -0.1932298844
 H         -0.0212975302        3.1189229164        0.3733596034
 H          0.4311663561        3.4655529859       -1.0751587867
 O          4.5248093221       -1.2408298420        1.5998658128
 H          5.1539583559       -0.9105216336        2.2415826200
 H          4.3700035149       -0.5068014897        0.9555004489
 O         -1.2460637480        2.1128882701        1.3344930794
 H         -1.7343383879        2.2708424778        2.1646366838
 H         -1.3260669113        1.1526419992        1.1465382011
 O         -2.7972602743        0.3330114169       -3.4032002606
 H         -2.8178033453        0.9596007650       -2.6675643241
 H         -3.5827212465       -0.2374306657       -3.3062708132
 O         -2.3655789442        2.2041792371       -1.2841106238
 H         -1.6809515667        2.6242468392       -1.8299315391
 H         -2.0865778897        2.3250220329       -0.3653032731
 O          1.1994022951        1.5497827435        2.6448940869
 H          1.3940167141        0.6302327322        2.3625830432
 H          0.4048289814        1.8195442306        2.1526835345
 O          3.8879021033        0.6797775067       -0.0582000708
 H          4.0502039384        0.8195202214       -1.0049352437
 H          3.7362532588        1.5582217061        0.3731968621
 O         -0.4004790055        0.7316099968        4.7083030775
 H          0.3331242129        1.0549534691        4.1523541205
 H         -0.6752701895       -0.1176970859        4.3093621469
 O          3.9528592980       -3.2723836250       -0.0953661707
 H          4.6569678610       -3.9210053249       -0.0799778551
 H          4.1798186994       -2.5844551466        0.5584210418
 O          1.7448315098       -0.9603612778        1.9144608698
 H          1.3010456512       -1.7558441338        2.2429852501
 H          2.6920012816       -1.1513448172        1.9045178356
 O         -0.9747035156       -0.4524007854        0.7576222196
 H         -0.0711347504       -0.3128708772        0.4153147595
 H         -1.4083609546       -1.0607288824        0.1255810822
 O         -3.9210097664       -0.0176302104        0.2347631629
 H         -3.8477733188        0.0310778668        1.2111301357
 H         -3.5144642867        0.7687424956       -0.1466196831
 O         -2.3479595291       -1.9630044876       -0.9961845253
 H         -2.2550629685       -1.8341746258       -1.9430383564
 H         -3.1309435762       -1.4646121355       -0.7163518427
