  76
       -127.46089063
 H          0.4735855925        0.6310013422        1.2739765492
 O         -1.2633812880        4.0766817056       -0.7834724983
 H         -1.3595685301        4.8676087411       -0.2533159885
 H         -1.6505620898        3.3283498230       -0.2759722969
 O         -2.2416259006        2.8997339371       -3.0867735886
 H         -2.9962721943        2.4559531492       -2.6704952712
 H         -1.9209232547        3.5411890218       -2.4339533580
 O          2.7034994116       -0.6609872686       -3.6740425026
 H          1.8484617519       -1.0024982143       -4.0101516424
 H          3.3775719839       -1.2864116123       -3.9411162910
 O         -2.8327819171       -1.7359004742        2.2770340735
 H         -3.7032345586       -1.9187860874        2.6319240461
 H         -2.6404500074       -0.7879887874        2.4474241354
 O         -1.3705636588       -2.4460635667        0.0422930308
 H         -0.6320608336       -2.9579303789        0.4379439330
 H         -1.9929059912       -2.2650386369        0.7639063303
 O          0.7656015299       -0.7695256051        1.4266356084
 H          1.7315168945       -0.8374609879        1.6083185565
 H          0.3236196005       -1.2615950056        2.1460477310
 O          0.6011945546       -3.8799308606        1.1700346215
 H          1.4016558335       -3.4239503170        0.7780589730
 H          0.7363638015       -4.8168734410        1.0268983299
 O         -0.3444333735       -2.4009503281        3.2721138019
 H          0.0445873195       -3.1331359221        2.7662931349
 H         -1.2885449042       -2.3826564927        3.0496762216
 O          0.3567658107        1.6708477066        1.1632245683
 H          0.5507610939        1.9001250706        0.1745573209
 H          1.1448850656        2.1206830444        1.6815888270
 O          2.6301405667        0.7794569841        4.1934019758
 H          1.6670400994        0.5695847315        4.2619154644
 H          2.9427759298        0.9156035839        5.0882171229
 O         -2.2762609971        1.7872359718        0.2171434029
 H         -1.6381772900        1.1496942762       -0.1901318955
 H         -3.0937368134        1.6765489235       -0.2917279756
 O          2.6639025861       -2.6882551175        0.1102300915
 H          3.2144697249       -2.3604621542        0.8306213994
 H          2.3919022095       -1.8870919717       -0.3841177514
 O          0.0557046356        0.1633756658        4.2705900258
 H         -0.6498073572        0.5148338588        3.7064504229
 H         -0.0289852275       -0.7988991095        4.2333398053
 O          3.3588628392       -0.7726467151        2.0519522977
 H          3.2917742304       -0.3550396244        2.9257467185
 H          3.7143177146       -0.0940614470        1.4548832471
 O          2.4152176755        2.6079510920        2.2289992606
 H          2.6024126672        2.0675562976        3.0223013387
 H          3.0172958865        2.2921603156        1.5276375268
 O          2.0066685188       -0.3492597062       -1.1224456288
 H          2.2869803267       -0.4039407661       -2.0612705970
 H          1.0456924421       -0.1969143583       -1.1122090205
 O         -2.2009919801        0.8538054917        2.7174864381
 H         -2.1602903796        1.2616029914        1.8205372679
 H         -2.7177100886        1.4452463235        3.2663364596
 O         -2.5919446740       -0.4950089367       -3.0750765952
 H         -2.4149396004       -1.4525427556       -2.9927729925
 H         -2.3894235227       -0.2518019092       -3.9814490148
 O          0.8776644863        2.4428530219       -1.1897543162
 H          0.3142267758        3.2339544814       -1.1921919504
 H          0.5768762787        1.8960753148       -1.9429406533
 O          3.6384844360        1.2589495522        0.2243372960
 H          4.2643833749        1.6404795772       -0.3909015895
 H          2.9876244673        0.7518059638       -0.3205069648
 O         -0.7587277143       -0.0364643090       -0.9837939970
 H         -0.8923076192       -0.8893222287       -0.5174686241
 H         -1.2660723177       -0.0960362126       -1.8089786066
 O         -0.1679176006        1.3249745768       -3.4467426663
 H         -0.9794495349        1.8942886789       -3.3944321281
 H          0.3764437669        1.6839558216       -4.1497973135
 O         -4.1296384824        1.2923737289       -1.7467491624
 H         -3.6929595806        0.5469432346       -2.2023927360
 H         -5.0553483032        1.2738218885       -1.9920532663
 O          0.1491552113       -1.3407887011       -4.1544835374
 H         -0.3051044964       -1.9773046334       -3.5871904122
 H         -0.0780897925       -0.4500222947       -3.8386501470
 O         -1.6184022364       -2.9434436283       -2.5763972918
 H         -1.8521136282       -3.8507496987       -2.7738311598
 H         -1.5408378408       -2.8647990115       -1.6020806624
