  146
       -243.93144456
 H         -2.5980044763        1.1550963854       -0.2138171262
 C         -1.8388238124        0.3769624150       -0.1658281673
 H         -2.2722300254       -0.5494583705       -0.5490786631
 C         -1.3708326338        0.1774133942        1.2788116916
 H         -2.2430985807        0.1742293889        1.9305316910
 H         -0.7267669047        1.0100997057        1.5651071628
 N         -0.6421313063       -1.0627602489        1.5151674322
 H         -1.2215142050       -1.8572826079        1.2719764946
 H          0.2042542366       -1.0950924572        0.9563221138
 O         -0.7865569960        0.7940116298       -1.0279950765
 H         -0.0801110148        0.1038912680       -1.0088697933
 O          1.6905159593        1.8273204742       -0.0556707360
 H          1.0316133830        2.3247656332        0.4688674241
 H          1.4877031534        1.9687752437       -1.0012248977
 O          3.8436600415       -1.1443775279       -1.1044520081
 H          3.6107426326       -0.4744702785       -1.7864879162
 H          3.8673608928       -1.9956069749       -1.5654942581
 O         -4.6049290055       -0.9819829216        1.3089714772
 H         -5.4976195185       -0.9980990010        0.9196610612
 H         -4.0251417750       -1.3817046094        0.6348323161
 O         -2.1191711950       -1.5012037728       -4.3961435595
 H         -1.7823696918       -0.6118531543       -4.1549549502
 H         -1.8218443924       -2.0875905797       -3.6726769231
 O          4.0468696704       -3.2077218919        1.3873351983
 H          3.5743086535       -3.0502408828        2.2213637863
 H          4.7910640475       -2.5841366957        1.3992230436
 O         -6.8782049549       -0.7487603914       -0.1584838774
 H         -7.7961711810       -0.7293019445        0.1097631498
 H         -6.6131354818        0.2008828466       -0.3361341818
 O          2.5159723308        4.6016647098       -2.1566584794
 H          1.9399036875        4.9045800210       -1.4406060867
 H          2.1130968652        3.7846003358       -2.4845283056
 O         -0.0165599858       -0.8731629695        4.1281257970
 H          0.8467251332       -1.2983523434        4.2145889070
 H         -0.2566337406       -0.9572685176        3.1679844226
 O          4.1935980627        2.3960482559        0.7568568369
 H          4.0635027539        2.1396605769        1.6857746536
 H          3.3179749998        2.2493462462        0.3412971971
 O          3.4776469174       -3.6767948899       -2.3244503554
 H          4.1402446819       -4.3605873525       -2.2303399796
 H          2.8380910161       -3.8033945130       -1.5902555526
 O         -2.1014586870       -4.2873313009        1.5024846436
 H         -2.3237236897       -5.1855145639        1.7531209763
 H         -2.6474408977       -3.7122333581        2.1322847633
 O         -2.6530200885        3.0469317080       -3.6466660131
 H         -2.1838126184        3.3183445001       -2.8164124488
 H         -2.8394620674        3.8483844567       -4.1344285740
 O          3.3013165230        1.1396320618        2.9841467570
 H          3.8096977413        0.5487033041        3.5865039507
 H          2.8908328192        0.5321106338        2.3370323743
 O         -2.6251997836       -1.2756569470        4.8694105761
 H         -1.6594807717       -1.2346638541        4.7670969018
 H         -2.9447237749       -0.3845695220        4.6564344223
 O         -4.6777434310       -1.0630454798       -3.9288530848
 H         -5.1738717236       -1.1286254962       -4.7445204296
 H         -3.7383907188       -1.2973706911       -4.1479840134
 O          2.1924556368       -1.5031220503       -3.5700627487
 H          1.5936517051       -1.4632288120       -4.3410083467
 H          2.5716247718       -2.3873985475       -3.5256394319
 O          5.0699536804        4.0575971382       -1.3269966446
 H          4.8574612809        3.6544157008       -0.4737195619
 H          4.2143113696        4.3399732000       -1.7032971180
 O          6.0361221638       -1.3516048308        1.9095544065
 H          5.9944656079       -0.6341883450        1.2222833816
 H          6.9606702153       -1.5776916551        2.0060124375
 O          1.3442482575        2.1277602931       -2.7086729891
 H          2.1705932606        1.6235166871       -2.8723595064
 H          0.6408951442        1.6892807571       -3.2064284795
 O          1.6034035074        3.0003292419        3.7596821769
 H          2.2278948764        2.2737649842        3.5096741691
 H          2.1016994117        3.6120943803        4.3010719070
 O         -6.0157377538        1.6904264465       -0.4877301949
 H         -5.5636662344        1.9143859685        0.3378292002
 H         -5.3021817854        1.5415587896       -1.1432690698
 O          0.4382649072        5.2106550467       -0.3598878526
 H         -0.1854294442        4.6339609544       -0.8622734016
 H          0.0739231994        6.0951588588       -0.3827179565
 O         -1.3344751830        3.4986451283       -1.4005558281
 H         -0.9364721018        2.6182866345       -1.2882904472
 H         -1.9449783599        3.5880351612       -0.6220057029
 O          0.5842474959       -4.0022376658        2.2685168123
 H         -0.3738294945       -4.0197896250        2.1272035556
 H          1.0006852669       -3.9601846079        1.3922370796
 O          4.5548610736       -0.8387239266        4.1999267440
 H          5.1541150016       -1.0534450433        3.4639283066
 H          3.8155420195       -1.4585319338        4.1314538817
 O         -0.4416173283       -4.9024771234       -0.8193974525
 H         -0.9704398273       -4.7561090934       -0.0239197433
 H          0.4618452869       -4.6322181306       -0.6016661826
 O          3.6041099337        0.7597541818       -2.9608707139
 H          4.4961287330        1.2121038348       -2.8465520576
 H          3.6332765285        0.2430629553       -3.7683802751
 O         -2.6254622637        3.6086185637        0.8721812520
 H         -3.2820712293        2.9483599661        1.1592755457
 H         -1.8162818367        3.4263492278        1.3744732280
 O         -3.6272664024       -2.8940033974        3.0222614785
 H         -4.0993286650       -2.2164513389        2.5076941685
 H         -3.2390818837       -2.4007176386        3.7824687896
 O         -1.0085495241        0.8732759470       -3.7037322146
 H         -1.0622674720        0.7716149974       -2.7275619573
 H         -1.5911572310        1.6247566865       -3.9028596640
 O         -1.2692933700       -2.7892167481       -2.1992607090
 H         -2.0315911933       -2.6251775506       -1.5988536554
 H         -0.9583667027       -3.6835157760       -1.9441507608
 O          5.7864781734        0.3928768372       -0.0433279001
 H          5.1384237383       -0.1931400298       -0.4824365212
 H          5.2663837064        1.1720985225        0.2619290368
 O          0.3937390384       -1.0461589767       -5.5287949970
 H         -0.4486286718       -1.5096562570       -5.4039086732
 H          0.2095360391       -0.1309133366       -5.2926634881
 O          5.9042608122        1.8188961915       -2.4840574287
 H          6.1825984237        1.3354915065       -1.6908275751
 H          5.6876479068        2.7290759826       -2.1639863068
 O          0.0702554268        3.2809890445        1.5363485900
 H          0.5772021906        3.2730427845        2.3666654948
 H          0.2884413114        4.1076691547        1.0725635675
 O         -5.4947116292       -2.5588183587       -1.7489799006
 H         -5.2645531979       -2.0558452962       -2.5495818132
 H         -6.0723380897       -1.9750380156       -1.2290237996
 O         -3.2122151121        1.4378015135        4.2976513313
 H         -3.6281961464        1.8080240489        5.0765864983
 H         -2.2434680906        1.6132850867        4.4021766998
 O          2.2719976261       -2.1769155771        3.2455148159
 H          2.1853571653       -1.5660094058        2.4916005588
 H          1.6311375804       -2.8955240966        3.0684185680
 O          0.7837677799       -1.3543168141       -1.3082691021
 H          1.3778334400       -1.2667224052       -2.0863446650
 H          0.0152734388       -1.8679532055       -1.6481043281
 O         -0.6363568812        1.6801320046        4.7704656833
 H          0.0827730421        2.2269407043        4.4234815287
 H         -0.3537846248        0.7552930890        4.6281821370
 O         -4.0679607959        1.0750135901       -2.2480260116
 H         -4.3608364645        0.3573296680       -2.8293404857
 H         -3.7249948511        1.7787215977       -2.8156430020
 O         -3.2429710575       -2.5724284294       -0.4414934134
 H         -3.0930815745       -3.3509940128        0.1130422241
 H         -4.0966071819       -2.6969502786       -0.9389445290
 O         -4.3388381588        1.6788762119        1.7961435191
 H         -4.4037438631        0.7213742680        1.6061776772
 H         -4.0468954041        1.7156673184        2.7224467292
 O          2.3020482175       -0.5120218173        1.0332574965
 H          1.9559022646        0.3009017117        0.6073994448
 H          2.9293363373       -0.8631206929        0.3728946105
 O          1.9009416962       -3.5160414132       -0.1465498159
 H          2.7230193883       -3.3717348956        0.3793536253
 H          1.5778570663       -2.6282994909       -0.4230198223
