  462
       -779.00401085
 H          0.1500575298       -1.5879761610       -0.8842262914
 C         -0.7656721552       -1.1777098978       -0.4700534949
 H         -1.1444849279       -0.3913475543       -1.1233380576
 C         -0.5359382188       -0.5914398672        0.9225484946
 H          0.1514148118       -1.2055394847        1.4945852910
 H         -1.4938104393       -0.5796647282        1.4308331504
 O         -1.6933949826       -2.2381994503       -0.4320412707
 H         -2.5742118874       -1.8500575835       -0.2293636982
 N         -0.0001983241        0.7767146453        0.8375699842
 H          1.0465097604        0.8041032346        0.9431464538
 H         -0.4174942983        1.4022127811        1.5445476863
 H         -0.1865026318        1.1894255673       -0.1004635000
 O         -0.0167835514       -3.3546127912       -5.4356743701
 H         -0.3225652906       -2.6648411544       -4.7992289625
 H          0.5794117330       -2.8914716405       -6.0409560645
 O          2.7618181988        0.7570187835       -2.0572963628
 H          3.0984412322        1.3986098311       -2.7087749994
 H          3.5462468277        0.4203603857       -1.5760552704
 O         -3.3465808402       -4.2610095778       -1.4688758048
 H         -3.7813163220       -4.8434420416       -2.1229396624
 H         -2.3990980769       -4.2267268707       -1.7650447922
 O         -1.0618282488       -4.5989162921        0.6291848607
 H         -1.1497967138       -3.7079995536        0.2350938627
 H         -1.5214672715       -5.2053931886        0.0305455120
 O         -1.3511230903        0.3739359627        3.8891768014
 H         -1.2642974766        1.2234489366        4.3524979526
 H         -1.9842022321        0.5165855789        3.1601071593
 O         -1.0103780101        2.8074380219        2.5095591085
 H         -0.5825146636        3.6293103291        2.7756973144
 H         -1.9160332004        3.0411942946        2.2430261774
 O          1.9536945679       -3.1005978109        1.9466040588
 H          2.5143205315       -2.9615178650        2.7346500748
 H          1.0393340599       -3.1119562334        2.2991096473
 O          1.0900067539        0.4805160564       -4.2763760787
 H          1.9194254860        0.2790449649       -4.7345596114
 H          0.9467925947        1.4364009189       -4.3906027908
 O          2.2114563841        3.7456709826       -1.7669353497
 H          2.1591109392        4.5263616237       -1.1867035112
 H          3.0684609449        3.3185024436       -1.5905974929
 O          1.0603739542       -0.9714783367        3.6606040286
 H          0.9584741369       -1.6778708787        4.3158443126
 H          0.2480199060       -0.4464339992        3.7079847723
 O         -0.6561335230       -1.7046771679       -3.4846964716
 H         -1.0651912658       -0.8226981855       -3.4429633350
 H          0.2668922954       -1.5924532236       -3.1624197528
 O         -1.6782972489        0.7909856538       -3.1502728900
 H         -1.9996886640        1.4136725528       -3.8266645346
 H         -0.9929861004        1.2584596847       -2.6314092006
 O          2.5155805121        1.5904851498        0.7465816815
 H          2.2356183304        2.5190858412        0.8959972598
 H          2.6393427072        1.4566234299       -0.1999677458
 O          1.5652002930        4.0073609197        1.1687353436
 H          1.3848099822        4.2343674259        2.0908217266
 H          0.7068535958        4.0223895093        0.6973744510
 O         -3.0534764807        0.7884996702        1.8383343299
 H         -3.5191514267        0.1328184190        1.2767269913
 H         -3.7360232999        1.1952754671        2.4040449056
 O         -3.1151675325       -2.1041522363        2.8857144702
 H         -3.9121013709       -1.6216465384        3.1628217743
 H         -3.3764105912       -2.6844357501        2.1462340235
 O         -0.7310125454        4.1020234310       -0.0713280662
 H         -0.6209282194        4.4166999871       -0.9846677273
 H         -1.2955073633        3.2928005231       -0.1515180954
 O          0.3181210061        1.7918231587       -1.6785865455
 H          1.0537157147        1.2099436219       -1.9365578219
 H          0.7044892478        2.6812431178       -1.7192647597
 O         -2.2926185884        2.0470990614       -0.3883318514
 H         -2.5250993450        1.6020573748        0.4514857425
 H         -3.1113649764        2.4670742591       -0.6894056754
 O         -4.6770870907        1.8207387712        3.6325774511
 H         -5.4243098524        2.4398134203        3.6535066815
 H         -4.1877788536        1.9693355503        4.4573889743
 O          6.1424383403        0.8603810447       -2.7441475610
 H          6.6892187144        1.0121763440       -1.9438508428
 H          5.7259559970       -0.0141256304       -2.6282471186
 O          0.4815293997        3.0994447640       -4.6547681821
 H          1.2347823849        3.6918747263       -4.7880824473
 H         -0.0061093296        3.4989383354       -3.9105233545
 O          3.8227052958       -0.1913647637       -4.8579414078
 H          3.9614810252        0.7562467904       -4.6982934857
 H          3.9862726865       -0.6410307247       -4.0063387326
 O          4.8124435597       -1.5415648923       -2.7612650946
 H          5.2912139276       -2.2603142682       -3.1993427291
 H          4.3561943665       -1.9867919225       -2.0139199416
 O         -0.7057471519        0.1470377099        7.4018446098
 H         -1.3666293584        0.7678684432        7.7072244037
 H         -1.1779370737       -0.5037858499        6.8305541722
 O         -1.2225147994        5.7793782947        1.9803836094
 H         -1.1540458194        5.1901568924        1.1987186481
 H         -2.0860279235        6.2348587455        1.9161985110
 O         -4.1474987232        0.5791109066       -2.2524079100
 H         -4.3565292993        1.4602621537       -1.8870839184
 H         -3.1937277524        0.5998694085       -2.4950781010
 O          2.2856423242       -1.0921655525        0.1788404785
 H          2.1814674080       -1.8282421385        0.8076847624
 H          2.1948287595       -1.4653288606       -0.7048324826
 O          2.2316524145        1.1872624882       -6.8141890644
 H          3.1303236977        1.5517996654       -6.7208427347
 H          1.8016908895        1.6864101085       -7.5076239223
 O         -3.1035315075       -6.4158872839        1.8770137483
 H         -2.8092063979       -6.8456194277        1.0692761310
 H         -2.3292022595       -6.3341806889        2.4653411228
 O         -3.4973592377        3.7156394759        1.7073473718
 H         -4.1841499923        3.0969009079        1.4404335185
 H         -3.3332140801        4.2903646674        0.9355124758
 O          1.5338870370        1.7870198173        3.3455113216
 H          0.6548077308        2.1465406412        3.2001229107
 H          1.5115895019        1.3518990835        4.2119536259
 O          1.4296064274       -4.2157626881       -1.2193035197
 H          2.2314631390       -3.6831928521       -1.0550587282
 H          1.6536163113       -5.1405331283       -1.0145776322
 O          6.6634175503       -0.3124927763        1.6913825785
 H          6.0993725135       -1.1028739108        1.6007615986
 H          6.0557000176        0.4544070067        1.7666071220
 O          2.3690704891        3.4625507551        5.8737455270
 H          3.3294992263        3.4047266380        5.8471813874
 H          2.0665535190        2.5419368648        5.9905651084
 O         -5.5401381891       -0.9325481452        3.5141423124
 H         -5.4108865385       -0.3486061915        4.2830054248
 H         -6.3370034408       -1.4609674292        3.7178452231
 O          9.8672474939       -2.7286927070       -2.1017777466
 H          9.1554823904       -2.2231423410       -2.5545056573
 H         10.6893894201       -2.4825452669       -2.5244753194
 O          3.4022121106       -0.2405009186        2.6045648789
 H          3.1949685055        0.4528379457        1.9536422946
 H          2.5396440937       -0.4862263978        2.9973735095
 O          3.7605291423       -6.1005354942       -3.4883675215
 H          2.8513912208       -5.7700203058       -3.6209371734
 H          3.7899812146       -6.9890530148       -3.8401138339
 O         -3.7317932684        6.7491927765        2.2204871264
 H         -3.9892701203        6.3151835895        3.0455946290
 H         -4.4472886728        6.5634844326        1.5943138519
 O         -5.9247110183       -5.4545711098       -0.1051075186
 H         -5.1647489026       -4.9907336279        0.2848861116
 H         -5.5352206799       -6.2160208168       -0.5825064241
 O         -0.5484977256       -3.1882784420        2.9050559325
 H         -0.8635019323       -3.8712633003        2.2987286622
 H         -1.2629287696       -2.5496358341        2.9922541276
 O         -1.0707527537       -5.9538912352        3.6131584661
 H         -1.6732013190       -5.3664105000        4.0964579150
 H         -0.1836273666       -5.6257035168        3.8480982440
 O          4.4576760426       -5.6939366788       -0.8565738631
 H          4.1043338110       -6.0568871974       -1.6828851631
 H          3.8169008546       -5.8710196896       -0.1442883424
 O         -5.8093510109        0.7893616563        1.3770031241
 H         -5.7556578081        0.3386126489        2.2342345297
 H         -6.5091315289        0.3618158780        0.8637360822
 O          4.9344622650        4.8012915533       -4.1809536030
 H          5.8719686222        4.6080244500       -4.3770243089
 H          4.9548918720        5.3020655806       -3.3340218275
 O          4.8914162221        6.0100220500       -1.8152550407
 H          4.1154981024        6.1011953615       -1.2463043506
 H          5.5574802412        5.5074474245       -1.3228752423
 O          1.4008750992        0.9395413765        5.9524792940
 H          0.6281431808        0.6677870906        6.4884939999
 H          2.0286467264        0.1957246561        6.0064836653
 O          9.1322408581        3.3735043062       -2.1758813658
 H          9.7981467755        3.9411370921       -2.5669579068
 H          9.3904216821        3.2992809086       -1.2111165627
 O         -2.7075767533       -4.1015719932       -5.2849105205
 H         -2.9761764764       -3.1716128951       -5.3084737220
 H         -1.7492262993       -4.0804001055       -5.4080118628
 O          5.8683098846        5.9730166529        2.3189250951
 H          5.2731331088        6.3082893529        2.9963864791
 H          5.2715780779        5.5907174403        1.6489903520
 O         -1.0162544800        7.0035937544       -0.7302031667
 H         -0.5905902081        7.2226348555        0.1032005333
 H         -0.3639747558        7.1352922809       -1.4259495024
 O         -0.6825201328       -0.3232091236       -6.0479019727
 H         -0.0873549941       -0.0597158288       -5.2937196862
 H         -0.1081914762       -0.8497456338       -6.6148837984
 O          4.1607774744        4.5570701230        0.8215101498
 H          3.3486774329        4.9958138964        0.5443875959
 H          4.3169910677        3.8019638775        0.2036880891
 O         -6.6452180320        3.2583622932        1.2955016741
 H         -6.2941331066        2.3306455564        1.2970117296
 H         -7.4729044491        3.2110056689        0.7844379520
 O         -5.1076388046       -5.5266183351        3.6745767670
 H         -4.7092434894       -6.2106005353        3.1263009606
 H         -4.3417451902       -5.0183919840        4.0196767848
 O          7.5039678613        1.2171863352       -0.4944666496
 H          7.0467769907        0.6402033548        0.1393496165
 H          8.4300657394        1.1711819378       -0.2261093782
 O          8.5421745671       -2.5731438957        2.9301210851
 H          8.8711368392       -3.4689747287        2.9935069444
 H          8.7285674377       -2.2763240969        2.0143976969
 O         -1.0720965498        2.6753007701        5.3981175682
 H         -1.1674212898        3.5885597328        5.0435833639
 H         -0.2185545569        2.6277344219        5.8332345232
 O         -0.6224902568        4.6577181500       -2.7153565746
 H         -0.2315089934        5.5244505659       -2.8690488403
 H         -1.5664924535        4.7190861221       -2.9364311917
 O         -6.7189659665        3.6640572673        3.8950217828
 H         -6.8411948396        3.6403353595        2.9191058401
 H         -7.3302641803        3.0103286610        4.2626739773
 O          0.9866307004        7.0358341345       -2.8683972339
 H          1.0755250263        7.8633861936       -3.3401540802
 H          1.5120565941        6.3610549507       -3.3831954264
 O          4.9744428658        0.1412825286        4.6602006872
 H          5.0535976407        1.0851284719        4.9077864803
 H          4.4342874463        0.1051338467        3.8321808323
 O         -5.6696769281        5.6305722793        0.4718177310
 H         -4.8565059965        5.4940108513       -0.0527922931
 H         -5.9065293341        4.7523988476        0.8366487932
 O         -9.0269907880        3.2958034838       -0.0754752037
 H         -9.1939556635        2.7545373038       -0.8587138015
 H         -8.7625590640        4.1607097939       -0.4299031886
 O         -6.1627292278       -3.5354299541       -3.7814388721
 H         -6.7608391653       -3.6157604261       -3.0213286716
 H         -5.3753358883       -3.0368269474       -3.4422549150
 O         -4.2505160867        4.7406477756        4.1522144049
 H         -3.9589313912        4.2993506485        3.3260029479
 H         -5.2053423594        4.5773656269        4.1980694643
 O         -0.9709902952       -4.1216313408       -2.4182128644
 H         -0.9966462982       -3.2239757798       -2.8015546536
 H         -0.2502714125       -4.0955253305       -1.7705070385
 O          3.8477875553       -3.0999851446       -0.8569106325
 H          4.1642052382       -2.7660703254        0.0120184821
 H          4.2072014934       -4.0023935763       -0.9479179490
 O         -3.7011844054        2.6087903978        6.0191477445
 H         -3.9241766023        3.5002907638        5.7142026582
 H         -2.7314344686        2.5446117350        5.9449094836
 O         -8.0039201050       -0.6460139841        0.5127934589
 H         -7.5138479510       -1.4707569366        0.6363907676
 H         -8.7333595288       -0.8293397701       -0.1158087880
 O         -3.9518172175       -0.9135807465       -0.0096366828
 H         -4.7956099841       -1.3516790903        0.1989082147
 H         -4.0869464849       -0.3987349804       -0.8305922740
 O         -5.9725812561       -2.3201003086        1.0845631141
 H         -5.4115747914       -3.1091620866        1.1260072140
 H         -5.8576691799       -1.8688152902        1.9285412248
 O          5.6352029654       -3.9700651542       -3.8190348000
 H          5.1171634967       -4.7708246679       -3.6524490203
 H          6.5026535356       -4.1555750077       -3.3997004403
 O          3.4672443559       -3.0569085885        4.1783258714
 H          3.1094150674       -2.4574771887        4.8492610325
 H          4.4208365240       -2.8522158851        4.1455061540
 O          4.7882706766       -2.2278484206        1.4712871440
 H          4.1965452496       -1.6152287564        1.9597097151
 H          4.9537855866       -3.0172616002        2.0118441945
 O          1.8415847493       -1.6859741241       -2.6009354592
 H          2.3543847717       -2.0937462557       -3.3194154533
 H          2.0907213215       -0.7408211362       -2.5928614725
 O         -4.4291332366       -7.2360164099       -1.4461369669
 H         -4.4359023516       -6.8763183152       -2.3448575755
 H         -3.5060453452       -7.2208777066       -1.1609822574
 O         -5.9603654426        4.5377037684       -2.9200627628
 H         -6.6924121124        4.9115597815       -2.4001446333
 H         -6.3467836901        3.8788276775       -3.5220903000
 O          3.2539612554        6.1513132889        3.6385491428
 H          3.2984812014        5.1774683582        3.5531095805
 H          3.0327948157        6.3328213689        4.5515596978
 O         -1.8752865347       -1.4964999643        5.6839768435
 H         -1.7993511314       -0.8778422313        4.9238660898
 H         -2.8220147280       -1.6837017621        5.8199386064
 O         -4.4533445951       -2.0421638620        6.0933315423
 H         -4.9330309429       -1.2184835912        6.2379210243
 H         -5.1404614606       -2.7340462525        5.9911236705
 O         -9.0613535433        1.2016530141        2.0301798190
 H         -9.2530189147        1.9771666823        1.4890135789
 H         -8.5491812088        0.6022126964        1.4403712358
 O          2.3176849633        6.1590847567       -0.5704771883
 H          1.8940619380        6.6485222168       -1.2882271661
 H          1.9161377102        6.4767709341        0.2744258877
 O         -6.3808655993       -3.8452211970        5.6111526326
 H         -6.9973183015       -3.3818501474        5.0244751185
 H         -6.0738890608       -4.6172974168        5.1216525971
 O          2.2487467805        5.0720928217       -4.0525152264
 H          3.1763480273        5.1595844879       -4.3106504432
 H          2.2582835280        4.5133307984       -3.2320774338
 O          7.4490200555        3.8597899499        1.8984962754
 H          7.6706725366        3.4658198367        2.7628017052
 H          6.9998140683        4.7067001940        2.1064439959
 O          3.1439604577       -2.9974348585       -4.6526796209
 H          2.6015316624       -3.7932877908       -4.5452871743
 H          4.0536259377       -3.2632522410       -4.4733890827
 O          7.4340518368        3.8539519957       -4.4864148069
 H          7.3279781990        3.0033006271       -4.9320343982
 H          7.9037867476        3.6805433975       -3.6625135795
 O         -6.8937691874        1.4381706834       -0.9872157138
 H         -7.6171736371        1.6996323841       -1.5813573488
 H         -6.6650373949        0.5244220966       -1.2202932549
 O          5.1790233487        2.7723931231        5.1600381503
 H          4.6901057111        3.1011308050        4.3800717884
 H          6.1202696303        2.8611349392        4.9475438739
 O          1.7705513401       -6.9179742116       -1.1068664489
 H          1.3882778306       -7.1153840253       -0.2428295572
 H          1.1245114160       -7.1809765014       -1.7713326237
 O         -1.6008181926        5.1762240549        4.5810052314
 H         -1.4812653969        5.4137043312        3.6381523303
 H         -2.5521557027        5.2364487347        4.7258835020
 O          8.4732701160        0.2263639831        3.4535748400
 H          8.7696389739       -0.6219504645        3.7939546201
 H          7.7484160877       -0.0105512095        2.8102824800
 O          0.5303112544       -2.6739518177        5.7526725577
 H          0.9058144460       -2.2663750268        6.5336090123
 H         -0.4105979642       -2.4132338128        5.7198895505
 O          5.4323112290        1.9784258560        1.7165285166
 H          4.7601842436        2.3250415806        2.3173786695
 H          6.1506720886        2.6284073473        1.6774793447
 O         -6.3907839392       -1.1111947286       -1.8076797560
 H         -5.5083249946       -1.2742834063       -2.1850113361
 H         -6.7061657453       -1.9754226777       -1.4736935688
 O          7.8163459009       -1.4071997939       -3.1834875585
 H          8.2546219736       -0.5290799619       -3.2144174880
 H          7.2893595087       -1.4791340706       -3.9982491342
 O         -9.9917275674       -1.2669850578       -1.1542056355
 H         -9.6275516624       -1.1127364230       -2.0417901202
 H        -10.0884112435       -2.2155871271       -1.0397358735
 O         -8.4972735285       -0.5946934512       -3.3428682132
 H         -7.6995986283       -0.7423971637       -2.7807809299
 H         -8.2270474788       -0.8806123797       -4.2237674232
 O          0.3810421526       -6.7387212302        1.3116699273
 H          0.0666873903       -6.9096578638        2.2058056822
 H          0.0284431701       -5.8455834949        1.1021171283
 O          6.1685801050       -1.4180983861       -5.4392923692
 H          6.0361786547       -2.3467627815       -5.6351001119
 H          5.2720081715       -1.0164585872       -5.3574630347
 O         -3.0453739477        2.3863307854       -4.8324636854
 H         -2.4364634794        2.4076072558       -5.6199346448
 H         -3.8091811588        1.8440301719       -5.0551153487
 O          1.2727821063        6.9374187192        1.7269554467
 H          0.4408425462        6.4994878671        1.9784664648
 H          1.9339798470        6.7133410875        2.4023676856
 O         -3.2538681978        4.5279399801       -3.2208455374
 H         -4.1787518962        4.8044044027       -3.2785938071
 H         -3.1850862153        3.7378321367       -3.7934992145
 O         -5.1997015681        0.5468101222       -4.6706808814
 H         -5.7861073703       -0.2123538109       -4.8544084879
 H         -4.8887592796        0.4568282272       -3.7314894474
 O          0.9353739284        4.5074130429        3.8303067066
 H          1.4995610747        4.0940627654        4.5169681189
 H          0.4053760284        5.1669330846        4.2808698021
 O          4.6102063398        2.6695828195       -0.9443692222
 H          4.7693320988        1.8219553828       -0.4882104465
 H          5.4874531978        3.0673065142       -1.0961170959
 O          7.8343981814        2.6555394791        4.3137742694
 H          8.5592739030        2.9348468288        4.8725594406
 H          8.0222566812        1.7222619000        4.0588972403
 O         -3.1986500218        5.2778808551       -0.5487426047
 H         -2.5205819327        5.9716029294       -0.5657934769
 H         -3.2013571382        4.8820341573       -1.4348178747
 O         -4.7807568545        2.9333603951       -1.0646080749
 H         -5.5885875013        2.4155167515       -0.8353366855
 H         -5.0898430091        3.5795183174       -1.7236352940
 O         -7.2709317576       -4.7913004285        2.1861878207
 H         -6.5922248016       -5.1031148257        2.8127750985
 H         -6.9502268323       -5.1059252743        1.3236144710
 O         -6.9047566544        2.5815706391       -4.5883029138
 H         -6.2685556112        1.8207706728       -4.5989112908
 H         -7.0847322561        2.8016100106       -5.5015593347
 O         -7.7071505831       -2.5023639222        3.5732755101
 H         -7.5648425423       -3.2674033457        2.9793604147
 H         -8.5588631937       -2.1173577236        3.3286695387
 O        -10.0612756804       -1.3944546736        2.5204047288
 H        -11.0123260653       -1.4454467226        2.6142548409
 H         -9.8419265864       -0.4711128395        2.3049853291
 O         -7.7679689749        5.5683808224       -1.1241449300
 H         -7.0060967614        5.6747449931       -0.4941900601
 H         -8.1756286463        6.4295758932       -1.2072372855
 O         -6.8321479842       -1.5305507088       -5.3451151241
 H         -6.7774858670       -1.8089054182       -6.2584251376
 H         -6.6139615842       -2.3315522315       -4.7979639149
 O          1.7761128425       -1.5656881870       -6.6502216233
 H          2.4183920767       -1.9034574109       -6.0082952558
 H          2.0278685842       -0.6357945537       -6.7816482799
 O         -0.3767786942       -6.8907247066       -3.0258747141
 H         -1.0517654199       -7.0118059127       -3.6945834404
 H          0.1417280765       -6.1056547035       -3.3100591103
 O          4.6888210456        2.4196643408       -6.5246677632
 H          5.4757572033        1.9848019286       -6.1557298731
 H          4.6516163750        3.2890150404       -6.1195061250
 O          3.5948365562        3.4564344359        3.1354819249
 H          3.6886264185        3.8382722455        2.2299350363
 H          2.8097911803        2.8598098639        3.1442639687
 O          5.2506227349       -4.7357334824        2.4713341308
 H          5.2145969676       -4.7720889539        3.4273964062
 H          4.4263780784       -5.1364540079        2.1301528803
 O          9.7211470831        3.3312432364        0.3589715768
 H          8.9713779326        3.5937106577        0.9192974502
 H          9.9426507917        2.4234437276        0.6282128869
 O          6.7117677603       -1.8101916497       -0.7242933269
 H          7.0233337364       -1.7534300386       -1.6457827852
 H          6.5871495092       -2.7506599142       -0.4971659800
 O          1.3484017659       -4.9489752807        4.3814723829
 H          2.2214267988       -4.6032775720        4.1650683762
 H          0.9339419064       -4.2307019074        4.8836467549
 O          3.2189230546       -1.0774617092        6.1560013231
 H          3.6213594332       -1.2808506116        6.9990550566
 H          3.9235145531       -0.6201293514        5.6140235952
 O         -1.6941348837       -6.9512445009       -0.6577326365
 H         -1.0001631123       -7.2975683381       -0.0812565545
 H         -1.2803226697       -6.8571896229       -1.5410571192
 O          7.8350320245       -4.6264834240       -2.4272456445
 H          7.5449209641       -4.6782777082       -1.5061845420
 H          8.6741445072       -4.1488934953       -2.4056866005
 O          2.8892465190       -5.4942783696        1.3673554809
 H          2.5070205627       -4.5871573204        1.4770899627
 H          2.1617537586       -6.0981121987        1.5633687663
 O          1.3445791482       -4.9185639179       -3.8093100046
 H          0.7573089815       -4.3871694015       -4.4046193939
 H          1.3234112964       -4.4858058194       -2.9220185589
 O          4.6697663582       -0.0054545154       -0.3816401162
 H          5.3719765540       -0.6731366904       -0.4468987410
 H          3.9159525323       -0.4190796660        0.0796017091
 O          9.7984558115        0.7218700195        1.0687011577
 H          9.4495695936        0.6907314191        1.9755095247
 H          9.7117377629       -0.1994647393        0.7549551561
 O         -2.9874556944       -4.1598847387        4.6110061691
 H         -3.1621421608       -3.8402019496        5.4982702883
 H         -2.9519210334       -3.3585366828        4.0392344873
 O         -3.8866545767       -4.0084388253        1.0978868568
 H         -3.5397386490       -3.9726773521        0.1815423158
 H         -3.5475946459       -4.8445652416        1.4909856923
 O         -8.8761537023        2.0225334311       -2.7059139086
 H         -8.9968028256        1.0833622863       -2.9391701855
 H         -8.3196619557        2.3807580060       -3.4141562901
 O         -7.3647400235       -3.5434057149       -1.3043541521
 H         -8.1194976373       -3.4790581050       -0.6946294913
 H         -6.8067615522       -4.2571762292       -0.9304098854
 O         -8.0721583997        1.3621941600        4.5255309551
 H         -8.3722203654        1.2674327767        3.5929758487
 H         -8.8363681758        1.1807948025        5.0717995941
 O          9.1166473772        0.9094496813       -3.4947054708
 H          9.1112920219        1.6756739624       -2.8986078882
 H          8.6627338744        1.1862337795       -4.3014568120
 O          6.7851150112        4.1802126067       -0.8907109168
 H          7.5589591895        3.9144923934       -1.4060797847
 H          7.0264793561        4.0787854827        0.0381490336
 O          6.9089671925        1.2324813778       -5.2474807906
 H          6.8752160326        0.3635596614       -5.6648659889
 H          6.5922599685        1.0792711992       -4.3224497141
 O          6.0586446444       -2.3385416769        4.1549591436
 H          5.9269386161       -1.3967065250        4.3418372175
 H          6.8986508524       -2.4149094088        3.6752854556
 O         -3.0403830367       -1.3238793059       -5.1690548647
 H         -2.1710737467       -0.9852364838       -5.4652559296
 H         -3.6709622736       -0.6013892171       -5.2642276657
 O         -1.1881139948        2.2573771985       -6.6422097871
 H         -1.0206748413        1.2940311699       -6.5996163349
 H         -0.5039684165        2.6488671357       -6.0694267540
 O          6.6242108038       -4.4125714750        0.0728691142
 H          5.9221087107       -4.9794814616       -0.2926550644
 H          6.4732905396       -4.4398763890        1.0264292767
 O         -9.2532270490       -3.4082823488        0.6765251956
 H         -9.5356160369       -2.6734910342        1.2435349190
 H         -8.8133346504       -4.0430615943        1.2553366081
 O         -4.2737172453       -5.5437233722       -3.6380457218
 H         -3.6308264863       -5.1418194946       -4.2583768693
 H         -5.1029611951       -5.0721450103       -3.8177738554
 O          4.1291209329        2.2925825972       -3.7235650421
 H          4.3337924465        3.2331980169       -3.8867176905
 H          4.9061063216        1.9347080684       -3.2499318173
 O          9.1095066345       -1.7886906078        0.3952649363
 H          8.1790633323       -1.6485741150        0.0958729901
 H          9.5424566070       -2.2356777401       -0.3482181654
 O         -5.7200624653        0.4776092602        5.8825050844
 H         -6.5357384593        0.8583645428        5.5254518286
 H         -5.1398110647        1.2108887275        6.1225587371
 O         -4.1351522008       -2.1349341184       -2.8245501293
 H         -3.5157535273       -1.8813548673       -3.5285417526
 H         -3.7077278201       -2.8069581785       -2.2500764744
