  192
       -320.53967568
 H         -2.3590126889        0.1932711904       -1.1160264738
 C         -1.4798567777        0.7864198887       -1.3828627492
 H         -0.9979970961        0.3381298760       -2.2524833239
 C         -0.4904517260        0.8241457831       -0.2227441975
 H         -0.9614444136        1.2286692998        0.6694406961
 H          0.3520026904        1.4553900484       -0.4947332051
 O         -1.8757400078        2.0917807600       -1.7628177152
 H         -2.2966856338        2.4940231593       -0.9744421393
 N          0.0030633326       -0.5250338137        0.0427848291
 H          0.6899453946       -0.5502441488        0.8230780330
 H          0.4799390523       -0.8836054266       -0.8136858616
 H         -0.7721889642       -1.1652712562        0.3185617174
 O          4.8245215142        0.3519127839       -1.6970870814
 H          4.5183797361       -0.0706112872       -2.5187301431
 H          5.3871249313       -0.3130938915       -1.2590212621
 O         -2.0344030317       -2.0581376236        1.0331037605
 H         -2.1328104387       -2.1813986996        1.9930469464
 H         -2.8723239646       -1.6520224009        0.7469656785
 O          6.5749358622       -1.7785810597       -3.6735264118
 H          7.0587912915       -1.8499154346       -4.4963107822
 H          5.7117209452       -1.3692584840       -3.8847333010
 O         -0.0387454560       -1.9970724685       -4.5611371116
 H         -0.9740111369       -2.1851650711       -4.4214705162
 H         -0.0243522124       -1.1445001751       -5.0259897918
 O          0.0515275626        4.0614317657        0.6621102723
 H         -0.3361675583        4.0803529670        1.5509556644
 H          0.9723000372        3.7605657775        0.7858289029
 O         -2.9902409967        2.6579661189        0.6275924785
 H         -3.1205064353        3.5104974432        1.0870385844
 H         -3.0184245821        1.9851936636        1.3344217811
 O         -3.6542291404        4.6816823344        2.2619267027
 H         -4.2508823477        4.0923651327        2.7760795470
 H         -4.2029711671        5.1092738685        1.5872570552
 O          4.4411092473        0.5818722726        3.8975061242
 H          5.3809646409        0.4863681292        4.0671646741
 H          4.3321533049        0.4178174039        2.9226614946
 O          1.9223491829       -5.0323958939       -1.9124686312
 H          1.5314647428       -5.8946974926       -2.0502881059
 H          2.7130711378       -5.1708280943       -1.3199357939
 O          4.0595695222        0.2834061924        1.3065817325
 H          4.6612773641       -0.4760611557        1.1642110682
 H          3.1560689631       -0.0956766212        1.3464742564
 O         -0.7144274977        0.1148221870        2.7217857972
 H         -0.1706985613        0.8034948753        3.1357717226
 H         -0.5218352602       -0.7282793751        3.1812345076
 O         -4.9994790818        2.7056961268        3.4333156267
 H         -5.8615503759        2.3528841936        3.1556925718
 H         -4.3516825601        2.0338614946        3.1781094069
 O          0.6964866822        2.1648092564        3.8835122614
 H          1.5644885050        2.5619405374        3.7209277499
 H          0.0436274988        2.8636726294        3.7373175754
 O          2.4170235694        1.1504132530       -0.8193507357
 H          3.2667671341        0.6936448464       -0.9736839658
 H          2.5536281903        1.7285748282       -0.0493684233
 O         -0.1276189065       -2.2066242891        3.9603200488
 H          0.2299769013       -2.8505012104        3.3011644649
 H          0.6109323462       -1.9225625375        4.5084066802
 O          3.4454567063       -1.9589800073       -0.9238903079
 H          3.9580956924       -2.5507140467       -1.4998115764
 H          2.6106461451       -1.7550127188       -1.3796148237
 O         -3.1851346204        0.7747912346        2.5462783192
 H         -3.5759478525        0.1938176958        1.8658140284
 H         -2.2273650850        0.4995401547        2.6386395442
 O         -2.6503169477        1.3367874726       -4.3002132056
 H         -2.3091050891        1.7740502821       -3.5046795029
 H         -3.6244083140        1.3466468044       -4.1569987636
 O         -2.7403924214       -1.3616358079       -3.8729535119
 H         -2.6546482379       -0.4090168537       -4.0792227348
 H         -3.6401374648       -1.4690164577       -3.5465723547
 O          1.2314893940       -1.0977194311       -2.3197710294
 H          1.5744753760       -0.3189182834       -2.7937060108
 H          0.7220517057       -1.5991389550       -2.9796661844
 O          0.6887255930       -3.1563432548       -0.3750182966
 H         -0.1437264847       -2.9798911742       -0.8430709167
 H          1.1401180708       -3.8341607354       -0.9034876807
 O         -4.3376370859       -0.7168035873        0.6332860378
 H         -5.0745613057       -0.9628515029        1.2280966870
 H         -4.6461325601       -0.7998374250       -0.2863463844
 O          5.8262869961       -1.7042525407        1.5324500208
 H          6.2305927545       -1.8111380731        0.6581606300
 H          6.3839901643       -1.0473746913        1.9961815579
 O         -3.9569572761       -3.6763775880       -0.9042875751
 H         -4.0476291625       -3.7448666484        0.0738692906
 H         -3.9675449531       -4.5759845796       -1.2315052500
 O         -1.6384834988       -4.8146431380        0.9318314230
 H         -0.8761772892       -4.9690041468        1.4976687089
 H         -1.6245647601       -3.8580184323        0.7520331897
 O         -6.7173444315       -3.2092496872        1.2114079870
 H         -6.6459236645       -2.5455662583        1.9172790380
 H         -5.9332593944       -3.7657160561        1.3137863223
 O         -6.0441031387       -1.0542141529        2.7069967626
 H         -6.5596504692       -0.2244294041        2.7179855549
 H         -5.4910714709       -1.0297919038        3.5040156227
 O         -4.2209253589       -0.4490609284        4.6890827789
 H         -4.4247193610        0.1124873011        5.4370064524
 H         -3.8073834350        0.1194946055        4.0007699080
 O          3.9927513134       -5.2226049340       -0.3288551998
 H          4.6362192878       -4.8002463971       -0.9139383684
 H          3.8341220900       -4.6001681228        0.4046143728
 O         -5.1958276423        2.5688513801       -0.8963001465
 H         -4.3977212142        2.4510474034       -0.3384662823
 H         -5.3701634457        3.5185994335       -0.8407488293
 O          1.9710777512        0.7863736928       -4.1657923842
 H          2.1839471975        1.6718264930       -3.8080065106
 H          1.1980638819        0.8706809535       -4.7401435683
 O          4.9520868224       -3.6776077738       -2.4624311784
 H          4.3367714959       -3.8343645661       -3.1870553148
 H          5.6795749231       -3.1490729426       -2.8248188005
 O          6.1675491349        2.5969290858       -1.0911235966
 H          5.5666448038        3.3509668325       -1.2089254093
 H          5.6553416159        1.8186480971       -1.3984658010
 O          3.4525283828       -3.1179484788        1.3954271540
 H          3.3627767037       -2.6891278164        0.4979422169
 H          4.3172425742       -2.8154159258        1.7076877226
 O         -1.5723308145       -2.4752322056       -1.6768631498
 H         -2.3300960910       -2.9587657934       -1.3170463163
 H         -1.8943549294       -2.0525177509       -2.4886429099
 O          6.8837404097       -1.2470321377       -0.9288592782
 H          7.4906108018       -0.5158261654       -0.7196176381
 H          7.0272875918       -1.4917239220       -1.8522619005
 O          2.6163543427        3.2150446223        0.9202109470
 H          3.2529685102        3.7157079491        0.3840502702
 H          2.9726706948        3.1487491638        1.8261658050
 O         -4.1166779870       -4.1799597531        1.7269072876
 H         -3.3143465062       -4.7166441578        1.5700595568
 H         -3.8605460980       -3.5917034225        2.4540719872
 O         -4.9720833972       -1.3965661360       -1.9504871182
 H         -4.5928995066       -2.2578489894       -1.6913787868
 H         -5.9210166333       -1.4700865021       -1.7355980675
 O         -5.0660921443        1.1338852454       -3.2497539944
 H         -5.1454577495        1.7464900488       -2.4983505611
 H         -5.0879111392        0.2495748102       -2.8631779642
 O         -7.2477541535        1.3616152280        2.5854520728
 H         -7.3022039896        1.3326981627        1.5883313685
 H         -8.1302624540        1.5621101256        2.8968139755
 O          3.3706042079        3.0222900072        3.5302459475
 H          4.0900115486        3.6546482178        3.5769687320
 H          3.7803909566        2.1501547574        3.7297307781
 O          5.5122557687        2.5405442390        1.5746713538
 H          5.8859651877        2.7245687636        0.6963138120
 H          4.8467251452        1.8505930107        1.4058024129
 O         -2.1323031955        5.2770177625       -0.7880173792
 H         -1.6844578272        5.2009694587       -1.6367668106
 H         -1.5037027517        4.9382747737       -0.1361998991
 O         -4.7718803966        5.2609567419       -0.2318741531
 H         -3.8299831446        5.2648012238       -0.5035586523
 H         -5.1507340929        6.0773732973       -0.5580054940
 O         -0.3941266422        0.5822466402       -5.6266477401
 H         -0.4869186058        0.7258857969       -6.5689148885
 H         -1.2194017620        0.9033584831       -5.2158249198
 O         -7.3330040420        1.1334635394        0.0033035334
 H         -7.3007623511        0.2148003845       -0.3069733107
 H         -6.5812622625        1.6113785992       -0.3957391818
 O         -2.8058889740       -2.5555365004        3.5988127878
 H         -3.3079455795       -1.9319804527        4.1415669340
 H         -1.9194172598       -2.6106983380        3.9856806225
 O          1.9367370260       -0.3210544170        4.5612895335
 H          2.8820106093       -0.0962770331        4.5659278333
 H          1.4678116066        0.5218149286        4.6163461708
 O          4.0791375572        4.3846219906       -1.1533778360
 H          3.5159460176        3.9010896850       -1.8145902232
 H          4.0955655101        5.3015709714       -1.4253818416
 O          2.4974469839       -3.2671887245       -3.9406582050
 H          2.2266069272       -3.8683144164       -3.2223528706
 H          1.6767510459       -2.9733841487       -4.3553046220
 O          2.4593452690        2.9694232359       -2.6840776243
 H          2.4375552034        2.2536598133       -1.9858306450
 H          1.5974036377        3.4298188163       -2.5989662288
 O          4.0095541373       -0.9746309828       -3.9690721144
 H          3.4885146789       -1.7994213777       -3.9099593912
 H          3.3685232894       -0.2943366905       -4.2371329306
 O         -7.3531095081       -1.5747280537       -0.7601799811
 H         -8.2321766384       -1.8032135181       -1.0625402570
 H         -7.1293997822       -2.2234129554       -0.0435773520
 O          7.1319953108        0.5195027170        2.3870283134
 H          6.5867668001        1.3177412617        2.2139019028
 H          7.8109029847        0.5508783297        1.7034479781
 O          8.2490398187        1.0424029938       -0.2277608758
 H          7.5733681379        1.6824474706       -0.5203814430
 H          9.0921053524        1.3743530721       -0.5368551465
 O          0.0627160999        3.9797963291       -2.1011237697
 H         -0.5789444128        3.2488652490       -2.1504378756
 H          0.1960480144        4.1193662348       -1.1506456144
 O          1.8575350809       -0.9738431676        1.9581849188
 H          1.8209620802       -0.7874382283        2.9186865906
 H          2.2425108819       -1.8622504331        1.8414851799
 O          0.8358940630       -3.8982217788        2.1439064040
 H          1.7822036584       -4.0491121281        2.2267022464
 H          0.7236109438       -3.5748429396        1.2142599231
 O         -1.1044873592        4.2716470253        3.1763076126
 H         -0.8747244664        5.0602463955        3.6702504869
 H         -2.0359771215        4.3909363319        2.9101037763
