  271
       -458.53029911
 H         -0.0167286384        0.2496125087        0.4876290724
 O         -0.2114805522        1.2456879046        0.3868516311
 H         -1.2269768334        1.4428684056        0.4868029389
 H          0.2598977614        1.8450999819        1.0667034878
 O         -2.1299732541       -0.3877417188       -0.9430039573
 H         -1.6050330696       -1.1181538658       -1.3234727369
 H         -3.0440583518       -0.5823442395       -1.1778256750
 O         -1.7456578700       -3.0134867970        0.9242282539
 H         -2.4159571217       -2.9844708690        0.2121150372
 H         -1.4034287550       -3.9221261207        0.9856451339
 O          0.5804740187        2.1352523422       -2.5251683249
 H         -0.3851475178        2.2745315428       -2.4233035332
 H          1.0280773053        2.7260170138       -1.8906907910
 O         -4.4719772486        3.4558271847        2.9161907242
 H         -4.5491093978        2.7991333271        3.6163583566
 H         -4.9875202043        3.1070818230        2.1624989998
 O         -0.2651502427        7.2666724818       -1.4648792841
 H         -0.5325376017        6.4633673496       -1.9836512216
 H         -0.3007225008        8.0077663967       -2.0686117685
 O         -2.0375966389        2.0713652752       -2.2536319081
 H         -2.6440013081        2.6750031433       -1.7957212503
 H         -2.0832662471        1.2036094347       -1.8156393968
 O         -1.0837265367        3.9826188482       -0.2673767248
 H         -1.2027984897        4.2984661262       -1.1847420082
 H         -0.1295556566        3.7629792294       -0.2096705383
 O          2.0636919514       -6.0600037791       -1.6353155873
 H          2.9346414886       -6.0685652016       -1.2276921987
 H          1.6905977249       -5.1693968112       -1.4014379875
 O         -1.3953039782       -4.3841385729        4.0259707375
 H         -2.3550333692       -4.2995206780        3.9786606931
 H         -1.1462887030       -4.8799698895        3.2234215891
 O         -2.6492676384       -0.6069599544        1.6911577953
 H         -2.4408916028       -0.5658463188        0.7372319854
 H         -3.6038097611       -0.4419293103        1.7746657544
 O          6.1687840383       -1.0311433903        3.5110625747
 H          5.6331412693       -0.9130118762        4.3086223481
 H          6.5939994772       -1.8880974587        3.5876744285
 O          3.3877563620       -0.8925226235       -2.8037826022
 H          3.5288889421       -1.5429972975       -2.0899146154
 H          3.6195307581       -1.3218343755       -3.6450269342
 O         -0.9369540413       -1.7659287190        3.5578010426
 H         -1.1471169883       -2.7051834283        3.7292573469
 H         -1.5385812220       -1.4674005257        2.8563214291
 O          2.7493467180       -5.8941784674        4.0831117765
 H          2.2282155422       -5.3376173722        4.6842982762
 H          3.6728906855       -5.6961805895        4.2519485900
 O          1.2316030896       -2.9119084053       -3.4715443722
 H          2.1709033059       -3.1518836140       -3.3773939885
 H          1.1886107404       -2.2638276666       -4.2034059209
 O          0.1264065605       -5.2957239102       -3.6720208685
 H          0.8136170954       -5.9055256083       -3.3869292792
 H          0.5461963194       -4.4017733069       -3.6191266078
 O         -3.6187902062       -2.7884781264       -1.0577344687
 H         -2.9682377713       -2.7661145279       -1.7730966824
 H         -4.0678566173       -3.6372514716       -1.1488906184
 O          4.0379762996       -1.3033052018       -5.4356228148
 H          4.6083034806       -1.9335276035       -5.8731969766
 H          4.4840549590       -0.4172809315       -5.5108717197
 O          1.3515906914       -1.0425548908       -5.3851927804
 H          2.3027242692       -1.1397065727       -5.5644586175
 H          1.1955209085       -0.0816926480       -5.2776538808
 O          0.2585527378       -1.2394584456        0.3499257084
 H         -0.4875682921       -1.8638183853        0.4905453810
 H          0.4492703311       -1.2270880115       -0.6092697458
 O         -0.5836118293        4.0284719378       -5.0240187712
 H          0.0205941834        3.2873567282       -5.1656625203
 H         -1.4828009399        3.6417953202       -5.0900057203
 O          3.2937863306        3.0004037213       -5.0991197093
 H          3.3495475818        2.9893020154       -4.1065039022
 H          3.3410674628        3.9153444053       -5.3748053822
 O          1.1349625013       -3.8110142899       -0.6498969334
 H          1.1920412749       -4.1146886546        0.2621988387
 H          1.8520940657       -3.1572733806       -0.7534181678
 O         -2.1900035903        1.8314784555        6.4138982121
 H         -1.7776549259        0.9472153279        6.3213056639
 H         -3.0599158717        1.7471516620        6.0024109449
 O          0.9835825950        1.6338301481       -5.0999174644
 H          0.8529800368        1.7811651133       -4.1371028870
 H          1.8418399500        2.0523513447       -5.2951506095
 O         -1.4076587763       -5.3720224046       -1.5048542261
 H         -0.9734198255       -6.0621643739       -0.9817445257
 H         -0.9318989143       -5.3685029549       -2.3685198817
 O          3.4092962800       -2.4001973033       -0.5603845946
 H          3.7994130679       -3.2847321346       -0.4257562423
 H          3.6357056931       -1.8980915836        0.2438081115
 O         -4.0151934194        5.5070315279        0.9271900620
 H         -4.2616831296        5.1086486459        1.7672674654
 H         -3.1277351319        5.8904852813        1.0458771736
 O          4.0417544174       -4.9361006655        0.2803220564
 H          3.2217917930       -4.9601588363        0.8089515540
 H          4.7356465796       -4.7465270174        0.9492118591
 O         -0.8168013134       -2.0192735376       -6.7651361074
 H         -1.2908884553       -1.1800796521       -6.8626617389
 H          0.0511594626       -1.7677238830       -6.4034874610
 O         -1.7078760359        1.1978574947        3.3499518683
 H         -1.7129968006        2.1250506005        3.0311121075
 H         -2.0054194074        0.6247724463        2.6081326930
 O         -1.0483842145        3.9923695027        5.4852689948
 H         -1.4566244870        3.1550262753        5.8375942414
 H         -1.1368690643        4.6436704779        6.1802232556
 O          3.8260320538       -3.6504228368       -3.4714869211
 H          3.9797506448       -4.3804951794       -4.0692099206
 H          4.5591119365       -3.6742841184       -2.8166819038
 O          0.9740313466        6.5324341708        2.1538193568
 H          0.0559712884        6.3952986921        1.8059564728
 H          0.9779921406        7.3821977518        2.5933016922
 O          3.9902657837       -0.7478676396        5.3467998071
 H          3.8474844335        0.1073645007        4.8921307216
 H          3.1847089627       -0.9044609326        5.8601285223
 O         -1.5042611504        0.6088807440       -6.0599104958
 H         -0.6510814477        1.0577511925       -6.0788748522
 H         -1.5090420133        0.1158691158       -5.2100162828
 O         -1.7808717605       -3.2790264865       -4.6604789337
 H         -1.5039792556       -2.9199284900       -5.5404173485
 H         -1.2347305317       -4.0553072418       -4.5019397890
 O         -2.8603378808        2.6162740509       -4.8263020225
 H         -2.6691082612        2.3026835372       -3.9222836426
 H         -2.6186115761        1.8807581770       -5.4180529359
 O         -3.9815273231       -1.6866270463        5.1169070613
 H         -3.7880132316       -2.1889736227        4.2877002868
 H         -4.6774110811       -2.1641428645        5.5666757905
 O          2.2194601743        0.6400214387        1.9400908697
 H          2.3911952694        1.0946765834        1.0968946437
 H          2.7887322440       -0.1598585433        1.9019212057
 O          1.2553961634       -3.7879884236        4.9929704141
 H          0.3381771405       -4.0198542786        4.8035134478
 H          1.2385804543       -2.9250264897        5.4553372779
 O          2.0365221179        6.2752487800       -0.3787035529
 H          1.3061158706        6.7197084504       -0.8441100431
 H          1.8434203515        6.3907431446        0.5679905820
 O          1.3118047353       -1.2916884840        6.0454939756
 H          1.0987702766       -0.6820161187        5.3038325713
 H          0.5625168914       -1.2032451010        6.6417792594
 O          0.1346829750       -7.2943681422       -0.2718264894
 H          0.1840591615       -8.2454859097       -0.3586645257
 H          0.9160538841       -6.9220559603       -0.7523411435
 O         -5.2490922767        0.0974401531        2.2293257986
 H         -5.6604834758        0.8333420837        1.7535974665
 H         -4.9592133877        0.4549141629        3.0954936456
 O         -0.9987403756       -2.6599367403       -1.8767489822
 H         -0.1690206817       -2.6289324080       -2.3784466275
 H         -1.0004711390       -3.5429557633       -1.4795429686
 O         -6.1553077011       -1.1871619928       -0.8384304456
 H         -5.8553605190       -1.8901087847       -0.2475063226
 H         -6.0183600641       -1.4995453803       -1.7504383944
 O         -5.9007399989       -2.4486583141        1.6569593680
 H         -5.7416418108       -1.5044927297        1.8676739202
 H         -6.8311400006       -2.6116262912        1.8093135229
 O          1.4910494043       -2.1517879894        2.5209479854
 H          1.2466190964       -1.7803278382        1.6555981093
 H          0.6957775499       -2.0144099998        3.0700065189
 O          2.8299160841        1.0146909989       -0.6129220204
 H          2.3564515147        0.3052510695       -1.0587181159
 H          2.9788732386        1.7171134260       -1.2812876889
 O          5.2171909094        1.0365512368       -5.4501429629
 H          5.5799386468        1.0570247966       -4.5526790889
 H          4.5604038306        1.7518093112       -5.4843039630
 O          5.7838086012       -3.8955633082       -1.6818901637
 H          5.4548697573       -4.6003752543       -1.1143062752
 H          6.0301693118       -3.1697045384       -1.0796649807
 O          5.3770902746        0.4084189487       -0.0192016990
 H          4.4183426979        0.5650504526       -0.1673144794
 H          5.5989404391        0.8842631692        0.8026901864
 O          0.7886832016       -0.4442377115       -2.1762956930
 H          0.7085276676        0.5368400137       -2.2447273390
 H          1.6224133985       -0.6913190498       -2.6157638892
 O          0.5964274811        3.0067243438        1.9958291823
 H         -0.2355175749        3.4932526658        2.1053947975
 H          0.9892674908        2.9474994637        2.8834685470
 O         -2.5743224234        1.9725182211        0.7624104307
 H         -3.2868299160        1.5897077279        0.2179571372
 H         -2.3947496250        2.8700775654        0.4314698019
 O         -3.8738620965        3.7464362528       -1.0606013073
 H         -3.9953808260        4.3414350995       -0.2877682316
 H         -4.7553968722        3.4015939817       -1.3207833396
 O          6.3921900161       -2.0109196674        0.2339929947
 H          7.3326032244       -1.8368583586        0.2064795278
 H          5.9421425549       -1.1347585656        0.1257956612
 O          1.8685519716       -4.6572843351        1.9077135262
 H          2.1973561386       -5.1859580713        2.6694311304
 H          1.7884864670       -3.7194170982        2.2349220007
 O          3.6725795374        1.5534796455        3.9479997002
 H          3.2587558244        2.2979470953        4.3922293953
 H          3.0852368829        1.3182330719        3.1857832109
 O         -5.7062524070       -1.7974590368       -3.4748930505
 H         -5.1832028361       -2.6170686101       -3.6976250023
 H         -6.4370197990       -1.7751824643       -4.0918729480
 O         -5.9493478877        2.4227367962        0.8794632416
 H         -6.6334547531        2.9269811935        0.4367436041
 H         -5.4333959573        1.9907024436        0.1595508305
 O         -5.2282326530        3.8690089790       -4.2929326288
 H         -4.4876504956        3.3173673574       -4.6063663880
 H         -4.8158150395        4.7050986218       -4.0376780777
 O         -1.8104870631        3.8348045372        2.8592405590
 H         -2.7845154709        3.7969848984        2.7954577061
 H         -1.5974958244        4.0929273208        3.7698248392
 O          5.6643265039       -3.9213018348        2.1436115662
 H          5.0117020647       -3.6118076449        2.7921597140
 H          5.9053157720       -3.1639712850        1.5839921514
 O         -3.7488185264        5.7441801754       -2.7900944813
 H         -3.8188330268        4.9858958278       -2.1558717601
 H         -4.1358590812        6.5016628666       -2.3515839959
 O         -0.6472227747       -5.4182801322        1.6321742607
 H         -0.6045412094       -6.2378853358        1.1254812892
 H          0.2959697830       -5.1734071832        1.7755425115
 O         -1.1222015682        5.1187590065       -2.7003604141
 H         -2.0420640829        5.3803590042       -2.8910432367
 H         -0.7882320612        4.7261063858       -3.5438373684
 O         -6.1996335957        2.8866265131       -2.0439474049
 H         -5.9586087825        3.2725426745       -2.9249019439
 H         -6.3904244424        1.9635190874       -2.2201317946
 O          3.6032050480        2.7742841292       -2.5009002536
 H          3.8993006978        3.5771417324       -2.0079224911
 H          4.3936631504        2.1967568975       -2.5931406937
 O         -4.0319681140       -5.4105787284       -1.7456201669
 H         -3.0491299766       -5.4660937663       -1.6513715411
 H         -4.3761144653       -6.3005273790       -1.6872408740
 O         -1.4916145489       -0.7580070397        6.0066797911
 H         -2.3771256490       -1.1373718689        6.0575363359
 H         -1.1921757943       -0.9944589661        5.1046439373
 O         -4.5566208442        0.8770846329       -0.7467637061
 H         -5.1783688040        0.1145115859       -0.6563324017
 H         -4.3600728704        0.9065153792       -1.7104106291
 O          3.9912203016       -1.3175715953        1.8489358201
 H          3.6060322749       -1.9601582499        2.4789590429
 H          4.8398747754       -1.0520936334        2.2401476000
 O         -4.3386267681       -3.9261250003       -4.0671988905
 H         -3.4307631227       -3.7017089264       -4.3512654408
 H         -4.2589287792       -4.5222791912       -3.3054440918
 O         -4.0023907353        0.3166661791       -3.2536398521
 H         -3.1160839258       -0.0137454219       -3.4767292998
 H         -4.6241971397       -0.4006597368       -3.4561947026
 O         -1.3523141471        6.2858504730        0.9147889246
 H         -1.1260971617        6.8453909641        0.1566898435
 H         -1.2610723226        5.3574363388        0.5652339228
 O          4.3607492840        4.7685075668       -0.9543917474
 H          3.7459820630        5.5086537375       -0.8816605923
 H          4.2457858485        4.2515186141       -0.1323018650
 O          1.5313608135        3.6536390394       -0.5297984081
 H          1.7525638733        4.6055151860       -0.5880979837
 H          2.1526461761        3.2808403817        0.1104416236
 O         -4.0895360456        0.9746644880        4.4877428341
 H         -3.1772456044        1.0593986267        4.1094465966
 H         -4.1158480580        0.0707744489        4.8483752780
 O          3.7263580332        3.1871654101        1.1751032184
 H          3.4362440979        3.7783966851        1.9068232083
 H          4.5544305037        2.7927293922        1.4623625322
 O          5.4336539743        0.8591460651       -2.6956477980
 H          5.7600305273        0.7750299412       -1.7869871704
 H          4.7058682031        0.2007083115       -2.7607973292
 O          0.7069485083        0.4883492072        4.1521187052
 H          1.1733190781        0.3696902755        3.3067680977
 H         -0.2353508795        0.6488435011        3.9258647839
 O          2.8678253261        4.7594907348        3.1391882607
 H          2.3816575058        4.2558629152        3.8055828213
 H          2.2322516809        5.3952612403        2.7770910787
 O          1.3301785853        3.0003306274        4.6381327991
 H          0.5465423306        3.4394923399        5.0146343873
 H          1.1224984314        2.0374784778        4.6574452647
 O          3.7225135850       -3.0225731148        3.9270421789
 H          3.8898943404       -2.2549476661        4.5079266239
 H          2.8317022024       -3.3197106186        4.1701071869
 O         -3.6196912708       -3.1787193001        2.9314697544
 H         -2.9494949039       -2.9828516713        2.2437190056
 H         -4.4727670619       -3.0831676591        2.4768392420
 O         -1.4943232391       -0.7192275178       -3.7477351390
 H         -1.5915728250       -1.6655670228       -3.9620135235
 H         -0.6700611669       -0.6366666277       -3.2350807587
 O          5.8560956979        1.5513775824        2.3862035265
 H          6.4575308599        0.8966138164        2.7526466294
 H          5.1282884696        1.6113491138        3.0384133316
