  102
       -167.76407914
 H         -2.7766338319       -2.0130518292       -1.5073729461
 C         -1.9956827222       -1.2512451428       -1.5008281612
 H         -1.0352343031       -1.7435288218       -1.6476160903
 C         -2.0164125551       -0.5339846053       -0.1495363114
 H         -1.9310049023       -1.2800325456        0.6373167903
 H         -2.9568423132        0.0014097388       -0.0316459312
 O         -2.2621476526       -0.3696003997       -2.5744129780
 H         -1.4115948091        0.0121768757       -2.8712389561
 N         -0.9127672635        0.4288932681       -0.0396640591
 H         -1.0444652107        1.2454967361       -0.6897367589
 H          0.0028513177       -0.0299381509       -0.2547959355
 H         -0.8203392930        0.8246697024        0.9253152004
 O          2.7865408018        1.4331483654       -3.8042340905
 H          3.2103091696        0.9709853932       -3.0586120208
 H          3.3499280521        1.3040050990       -4.5671684586
 O          2.8386389395       -1.1964677803        2.1797981900
 H          2.0757843997       -0.9871663895        2.7774088639
 H          2.8083291394       -2.1627256339        2.0771374043
 O          0.6411741491       -0.6624881199        3.5174520778
 H         -0.1300774113       -1.2426678071        3.4290252423
 H          0.3291252722        0.2133866195        3.2319027287
 O         -2.1929610143        3.4979808188        2.8649992339
 H         -2.9768751572        3.0092610438        2.5249841927
 H         -2.4490563596        3.9192753244        3.6858419847
 O          1.7965656166       -2.1292440598       -2.4510342867
 H          1.6187955398       -1.8074962863       -1.5367660922
 H          2.7053463331       -2.4383766824       -2.4368318596
 O         -0.6707083710        4.3684678159        0.6825532689
 H          0.1794365943        4.0269356920        0.9971273900
 H         -1.2892535076        4.2591358400        1.4185080288
 O          1.5218848910        1.3910299938       -0.7135306165
 H          2.3325352945        0.9249057764       -0.9888845317
 H          1.2618345621        1.9509587336       -1.4731155730
 O          4.0303529656       -2.3867611417       -0.5981332393
 H          4.8010766296       -2.2151306754       -0.0450366988
 H          3.4365221155       -2.9204058425       -0.0450481769
 O         -0.3362514708        1.5915708414        2.3419827257
 H          0.4411434505        2.1254265701        2.0586965562
 H         -0.9915310924        2.2305641111        2.6713070053
 O          1.1733010231       -1.2926074512       -0.0057793035
 H          0.6714707631       -2.0262110584        0.4162291739
 H          1.8714342789       -1.0538171088        0.6274755724
 O         -1.4967857743       -4.6077040654       -0.4376961629
 H         -1.1199566354       -4.4080634661       -1.3134901798
 H         -2.3992038632       -4.2573338831       -0.4405511383
 O          1.9996654044        4.9088269039       -0.7659971682
 H          2.0698838017        4.3564543111        0.0306442718
 H          1.3393300911        5.5775546832       -0.5706229214
 O         -1.3542785452        2.7501031772       -1.3230045179
 H         -1.1247223870        3.4083384059       -0.6242922364
 H         -0.7218156590        2.9128078553       -2.0388617590
 O         -4.2240259043        2.0884635285        1.8563560067
 H         -5.0963090075        2.4099515947        2.0893376243
 H         -4.1278828702        2.2564052400        0.8751095074
 O          1.6808393207        3.0065338970        1.2894176138
 H          2.4704899715        2.7000551410        1.7817539362
 H          1.6440769961        2.3893110429        0.5036486132
 O          2.5552098329       -3.8005847154        1.3519692964
 H          1.5749053671       -3.7372830197        1.3274148076
 H          2.7667632316       -4.7090645211        1.5674877911
 O         -0.3015064816       -3.8331492845       -2.7730567742
 H         -0.2154972189       -4.3625821583       -3.5655080064
 H          0.4918424095       -3.2652377302       -2.7207902921
 O         -1.7407678474       -2.0838015182        3.0831772038
 H         -2.5086449232       -1.5167662100        2.8440510518
 H         -2.0268079878       -2.6053621361        3.8344709505
 O          1.0080550255        3.2281002457       -2.6202636416
 H          1.4180131623        3.9349340716       -2.0770030660
 H          1.6741632869        2.9339655117       -3.2530340756
 O         -3.8849739181       -0.6205723214        2.4081886155
 H         -3.9128573071        0.3481321164        2.3544484097
 H         -4.4340051622       -0.9341178812        1.6760119572
 O         -0.0575317024       -3.2696782068        1.2404347170
 H         -0.6589511509       -2.9536212870        1.9330037016
 H         -0.6018682319       -3.8380146386        0.6261407425
 O         -4.0885060432       -3.5400772155       -0.3100910320
 H         -4.6949079165       -4.2627105266       -0.1414631365
 H         -4.5649565080       -2.7162145488       -0.1123292331
 O          3.7357117591        1.6011213982        2.2105229822
 H          4.4152869245        1.5712988092        1.5201666239
 H          3.3922664856        0.7045191217        2.2946187181
 O         -4.7845115145        0.3130885691       -2.1370796877
 H         -5.2852312226        0.2964666945       -2.9538210709
 H         -3.8562449275        0.0749637191       -2.3748511869
 O         -4.0113027281        2.5290214987       -0.6936856436
 H         -4.3839072983        1.8314923495       -1.2559837925
 H         -3.1136834552        2.7005426424       -1.0277492914
 O          5.5120162492       -1.3159464207        1.6259206296
 H          4.5894171507       -1.2121462677        1.9329689917
 H          6.0401851427       -1.5249021703        2.3975533456
 O          0.3198251768        0.1848156996       -3.1068918141
 H          0.9337483150        0.7997982613       -3.5243326946
 H          0.8050007358       -0.6488043903       -3.0331996466
 O          3.7994052796        0.1899986476       -1.5377966507
 H          4.5000263280        0.6081828600       -1.0116663950
 H          3.8100210577       -0.7530277947       -1.2891379824
 O          5.6788535539        1.0201545975        0.2832833612
 H          5.7864247157        0.1551705012        0.7304896749
 H          6.5461875738        1.4188854950        0.2071882461
 O         -5.4252745831       -1.1352086815        0.0761901855
 H         -6.3805461945       -1.1374324755        0.1569687292
 H         -5.2136153211       -0.6104857408       -0.7247758786
