  221
       -371.24721468
 H          0.8857524939       -1.3085432238       -1.3722101454
 C          1.4318216832       -0.4720224197       -0.9302152344
 H          1.5093703203       -0.6289760032        0.1458237394
 C          0.6866672171        0.8474938734       -1.1891439764
 H         -0.2994967400        0.6265526155       -1.5906826079
 H          1.2342018292        1.4385885475       -1.9225248339
 N          0.5092451151        1.6600645076        0.0082693396
 H          0.1781033565        1.0698104802        0.7645127223
 H          1.3998770801        2.0670736473        0.2739531624
 O          2.7634474071       -0.4753211688       -1.4187411732
 H          2.7136512832       -0.5461117650       -2.4094314324
 O         -5.8158311465       -2.1109547420       -2.1111686108
 H         -6.7192157348       -1.7616498289       -2.1536880823
 H         -5.3452094289       -1.7621475469       -2.9153859284
 O          6.8839835625        2.7548937081       -1.1746999595
 H          6.3237160865        1.9609677361       -1.2272068988
 H          6.5436023954        3.3647176016       -1.8474812865
 O          3.1794748370        2.7841935068       -0.1669937406
 H          3.3745567500        2.5809229624       -1.0988269173
 H          4.0277757663        3.0363466819        0.2489684793
 O         -8.0644203864       -0.6581134561       -1.6308583008
 H         -8.9550563641       -0.5943785921       -1.9753896672
 H         -8.1541275137       -0.7364494976       -0.6497826039
 O          1.0851144571        6.1082713417        1.6896620937
 H          1.5058029950        5.7733544308        0.8425766198
 H          1.6058738372        6.8654238620        1.9563413679
 O          3.6427591199        2.4179727862       -2.8382988152
 H          2.9746150107        2.6489765063       -3.5207360542
 H          4.1589938278        1.6800322126       -3.2395472137
 O          2.1963420347        5.2055226670       -0.4729124801
 H          2.4046853868        4.2475575664       -0.3416738036
 H          3.0860652592        5.6203826487       -0.5546949428
 O         -1.3451359416        5.9604449583        0.2142554299
 H         -1.3654954082        4.9805878775        0.1751491284
 H         -0.5585166398        6.1722585608        0.7345563451
 O          5.3624633518        4.4001231858       -2.7956608803
 H          4.6722930230        3.6828671684       -2.8156911342
 H          5.4073502241        4.7551062627       -3.6826339437
 O         -8.2857884728       -0.7949604691        1.0055794800
 H         -7.7370560956       -0.0481841398        1.3169131631
 H         -8.0222308279       -1.5620041917        1.5169481232
 O          6.4901575778       -1.1190314881       -2.3805011232
 H          7.3036129937       -1.0334045984       -1.8547853578
 H          6.2031345615       -2.0508029689       -2.2807801123
 O          2.7140549229        1.6237653624        2.4855830230
 H          2.1868681206        2.4378752265        2.3850343863
 H          2.0674634139        0.8963822328        2.3341379818
 O         -5.5381391849        3.2879916034        2.7990837997
 H         -4.8318505842        2.9978165564        3.3928429975
 H         -5.1472645065        3.9546256795        2.2191561062
 O         -3.8603906829        4.8147107698        1.0908794639
 H         -3.5058969302        5.5467694451        0.5764037715
 H         -3.1005939327        4.5198988167        1.6291437975
 O          2.3928308867       -0.9018731882       -3.9758268784
 H          2.1403749558       -1.8335764509       -3.8267515724
 H          1.5738492787       -0.4210406600       -4.2198004831
 O         -1.8912369174       -2.9202772189       -0.2051720166
 H         -1.1123211292       -2.8446057944        0.3895415110
 H         -1.5291870416       -2.9597416447       -1.1107338674
 O         -3.0341088539        2.3160099631        3.8357318777
 H         -2.5947243921        3.1793231901        3.7820614990
 H         -3.1132875601        2.0406668054        2.8843303864
 O         -0.8214717691        0.8251216482        4.3434082146
 H         -1.6057298324        1.3749700232        4.1295012191
 H         -1.1323820041        0.1521263550        4.9525658976
 O         -1.9424051666       -1.1016930480       -3.6011435604
 H         -1.5638902495       -1.9821697314       -3.4007070853
 H         -2.1054913348       -0.7018334739       -2.7205235953
 O         -3.9503561100       -1.9405851255        1.2125030863
 H         -4.5573683201       -2.6513557254        0.9166934166
 H         -3.0939663435       -2.1327771199        0.7857375922
 O         -0.1727658860       -5.9212100859       -0.4450728532
 H         -0.8121797106       -5.9618850016       -1.1631267940
 H         -0.6550424913       -5.7161810873        0.3699067538
 O         -1.4202693336       -5.1887462549        2.0274033747
 H         -2.1985720875       -4.8023075289        2.4626865019
 H         -0.6826788924       -4.9771593097        2.6080364578
 O         -0.8994709707       -3.3551072374       -2.6773874618
 H          0.0257140155       -3.4732932934       -2.9532851495
 H         -1.3510450957       -4.2242639497       -2.7577741190
 O         -2.3826433911       -5.5656024753       -2.5742636864
 H         -3.0667360157       -5.2496656464       -3.1878425296
 H         -2.8241817817       -5.5397649988       -1.7043956030
 O         -1.5455811883       -0.4140246922        1.2908254784
 H         -1.7005073858       -0.9835864660        2.0639798904
 H         -2.1231209655        0.3586077317        1.4130825621
 O          0.2765071151       -2.6294275970        1.2807643790
 H          0.3321008764       -1.6832015141        1.5108442932
 H          0.2824505677       -3.0972567744        2.1418847780
 O          5.1527974839        0.6363712824       -0.8859675075
 H          4.2094761604        0.5077760653       -1.0805367892
 H          5.6263103349       -0.0452231702       -1.4073775586
 O          8.4902087630       -0.9645552186       -0.5130688931
 H          8.1837106138       -0.5912427418        0.3672441680
 H          9.2901962758       -0.4858106721       -0.7295128779
 O         -5.4503751271       -0.9445481222        3.1844859548
 H         -5.8710514776       -0.1779689483        2.7394892666
 H         -4.7465785068       -1.2291905009        2.5717590387
 O         -3.5736164675       -4.1410639250        3.4186692893
 H         -4.5289395957       -3.9792825347        3.1976894188
 H         -3.5727019000       -4.5445119099        4.2869667780
 O          4.4117459695       -1.7655826109        2.4074119913
 H          4.6922683944       -0.8374215718        2.2412568637
 H          4.1856874221       -2.1203708389        1.5240896153
 O         -2.4732774839       -0.0139176223       -1.2308181704
 H         -1.9953627745       -0.2751406951       -0.4202171320
 H         -3.4271647340       -0.0446499482       -0.9869176062
 O          5.5483546857        3.5363142375        0.9524669642
 H          5.7061523299        2.8688815748        1.6264525922
 H          6.1657519305        3.3067007843        0.2098469224
 O          7.8754922452       -3.5467729680        0.0362101032
 H          8.1417570619       -2.6290960172       -0.1858430265
 H          8.6834528651       -4.0480187584        0.1469405307
 O          1.6937875484       -4.0048575449       -0.4851558812
 H          1.1779615017       -4.8351571521       -0.5214148495
 H          1.1855671361       -3.4409077002        0.1347775891
 O         -4.9885789393        1.5150418892       -4.0159399131
 H         -5.2669686761        2.0410681357       -4.7649588398
 H         -5.7126394957        1.5968496116       -3.3294211179
 O         -1.6996001449        4.3986076371        2.7741987099
 H         -0.8441768535        3.9526497588        2.5714757361
 H         -1.4902248571        5.3310690173        2.8507518345
 O         -2.0179164526       -1.8868912170        3.5824604741
 H         -2.5457769227       -1.2815379598        4.1447445560
 H         -2.6073575487       -2.6402785113        3.3988640887
 O         -4.9802405419       -0.1493414395       -0.4043518392
 H         -5.3916300793       -0.7643414351       -1.0385982013
 H         -4.6320653232       -0.7322879909        0.3103974544
 O          4.0456933203       -4.8529379639       -3.4946268614
 H          4.7146539902       -4.4014953170       -2.9494879917
 H          4.0395425720       -5.7687134508       -3.2145547687
 O          0.1256536345        0.4632249152       -4.4582003014
 H         -0.0730148939        1.3005227900       -4.0141338290
 H         -0.6367243853       -0.1181365035       -4.2811272949
 O          0.0394904028        5.3478306551       -2.1519569887
 H          0.8942859187        5.3110052225       -1.6883376261
 H         -0.5789031902        5.7170257493       -1.5017994851
 O         -3.0019282637        2.3435765817       -2.3644006809
 H         -2.7021119807        1.4928773691       -1.9750404704
 H         -3.6302599479        2.0905591781       -3.0674944952
 O         -3.0953222470        1.7578029685        1.3005520695
 H         -3.9079975014        1.8823234121        0.7734126578
 H         -2.4408917124        2.3660080725        0.8715635321
 O          2.4107887584       -1.6659309804        4.2050245069
 H          3.1692723844       -1.8420369745        3.6056790291
 H          2.6776062252       -0.8916862108        4.7296055783
 O         -6.4054714933        1.0203463680        1.6431061680
 H         -5.9026265342        0.9295190895        0.8148224540
 H         -6.2045819953        1.9051499653        2.0132482632
 O          0.2104118731       -3.4590119483        3.8108018769
 H          0.9923957168       -2.9960032806        4.1418902154
 H         -0.5461223128       -2.8542576166        3.9332066244
 O          5.7361464132       -3.6096345813       -1.7053585801
 H          5.0558527681       -3.2571190474       -1.0852506656
 H          6.4984826777       -3.8201269579       -1.1446949611
 O          4.8446069271        0.3966217986       -4.0666962990
 H          5.5062088807       -0.1460852793       -3.6157645956
 H          4.0771474657       -0.1719718930       -4.2289152724
 O          0.8396594873        3.5640100574        2.6282991049
 H          1.0844120426        4.4831766210        2.4286823283
 H          0.9285624298        3.4174867508        3.5979714410
 O          1.7866068302       -3.4028526536       -3.0982947800
 H          1.8184183164       -3.5443117922       -2.1271719582
 H          2.5183951049       -3.9475144438       -3.4410219857
 O         -4.5349409213       -1.1960983468       -4.2105209625
 H         -3.5606435024       -1.2116973052       -4.0738928482
 H         -4.7528118924       -0.2501548454       -4.2595453446
 O         -0.4719276357        2.9939886175       -3.3050925011
 H         -0.2601572600        3.8617499993       -2.8926579825
 H         -1.4202348482        2.8666399738       -3.1572952685
 O          7.7600773142       -0.1933386652        1.8580790280
 H          6.9111184992        0.2682501815        1.8886105735
 H          7.5896105357       -1.0745735669        2.2628983545
 O         -6.7964044655        1.7648375818       -2.1613911428
 H         -7.1933425267        0.9152065391       -1.9055361750
 H         -6.2733323294        2.0786443033       -1.4039316927
 O         -3.3534524503       -5.1038877148       -0.0737901273
 H         -2.7924305474       -4.2819000228       -0.0731602999
 H         -3.0232421832       -5.6313358676        0.6572030808
 O         -6.1031796463       -3.5865166190        2.9025307533
 H         -6.0571767978       -2.6309786364        3.0958662997
 H         -6.1760534397       -3.6847134638        1.9422217554
 O         -1.4896962976        3.2946175031       -0.1001861403
 H         -1.8539686198        3.2151054188       -0.9876118757
 H         -0.6343086085        2.7406331894       -0.0958173114
 O          3.8924753416       -2.5543323593       -0.1186249025
 H          3.1773269864       -3.2149919315       -0.1744586448
 H          3.5536338564       -1.7672085626       -0.5972891032
 O          6.9955988965       -2.6541990357        2.5873891229
 H          6.0370685765       -2.4762213398        2.6299315315
 H          7.1513041140       -3.1218510189        1.7542050477
 O          1.0198261974        2.7018932942        5.1443031402
 H          1.8227967986        2.1880112225        5.3089818437
 H          0.3312138165        2.0346136083        4.9740106521
 O          1.8700820794        2.8543800193       -4.7861049501
 H          1.0312710434        3.1021712591       -4.3677772618
 H          1.7097491392        2.0040777610       -5.2050142025
 O         -4.4183773767       -4.1313806419       -3.7533624299
 H         -4.2817829734       -3.4232151518       -4.3890771455
 H         -4.9637314769       -3.7448957588       -3.0586159881
 O         -3.5824697560       -0.2050630311        4.9807835988
 H         -4.3967241327       -0.4923844193        4.5224060586
 H         -3.5228269206        0.7430981231        4.8074002902
 O         -4.8851287495        2.7504191480       -0.4216182138
 H         -4.7163920025        3.6006903494        0.0179504573
 H         -4.2374997396        2.6979294751       -1.1530999835
 O          3.2020444604        0.8861081332        4.9795443864
 H          3.0962061340        1.1920541959        4.0427565465
 H          4.1290774437        0.9878742159        5.1944705959
 O         -5.6421940430       -3.7042360166        0.1486802486
 H         -4.9551263744       -4.3812542192       -0.0114864999
 H         -5.7786895358       -3.2428411746       -0.6943798925
 O          5.1317518026        0.7458108298        1.7522805191
 H          5.1684262078        0.6993817315        0.7676705019
 H          4.2768500455        1.1736812145        1.9505813690
 O          0.9087530100       -0.2985991931        2.5176168780
 H          1.4224282412       -0.8580663934        3.1475207806
 H          0.2039757989        0.1116369659        3.0491408853
 O          4.7642760371        5.8427165437       -0.5150882005
 H          5.0990374682        5.2406755187        0.1630061688
 H          5.0499095496        5.4555494151       -1.3611679735
