  189
       -320.70177779
 O          3.6529819296       -3.0100242066        0.4018242963
 H          4.5105591248       -2.5378529369        0.4862970357
 H          3.8905586989       -3.8220471909       -0.0740019923
 O         -0.6005903013        3.0320493565        3.2812824250
 H          0.0159212896        3.7160108810        3.0075728733
 H         -0.0486990266        2.2632870416        3.5206616362
 O          4.6651478801       -0.0911733976       -1.3981161999
 H          4.1496439767        0.7128512019       -1.6013382251
 H          4.4149166084       -0.7427782467       -2.0959548640
 O          0.8998867815        3.1638513719       -0.6400184411
 H          1.1453732191        3.1595814178        0.3051980249
 H          1.6854560125        2.8562835727       -1.1283086849
 O         -4.1339419735        0.6623935385        1.1798876134
 H         -3.6987153540        1.2878226467        1.7842560566
 H         -4.5033213487       -0.0456781077        1.7508930240
 O          1.3227242003        0.2518129624       -2.9219415148
 H          0.3937655882        0.5246658519       -2.7996269755
 H          1.4052914513       -0.6403812402       -2.5480122435
 O          1.9801050585       -2.1408149556       -1.6481910293
 H          1.3897723926       -2.8687734850       -1.9606814155
 H          2.4726405626       -2.4873942441       -0.8857137520
 O          1.0022426885       -3.6276260275        0.7578214154
 H          0.3207646122       -3.9813678604        1.3428739347
 H          1.3360287533       -4.3644571256        0.2089422834
 O         -2.3055021511        1.1901325702       -4.9839790823
 H         -2.0037168962        2.0777384110       -4.7614626550
 H         -3.2138199257        1.1371742618       -4.6384993653
 O         -3.2779284526        2.3571281622        3.1826564268
 H         -3.7834597693        3.0664035318        2.7103643450
 H         -2.4293399401        2.7675681566        3.4023488929
 O          1.8640801217        2.9472443799        1.8883626995
 H          1.7273729338        2.1346137641        2.3941352621
 H          2.7911534942        2.9225439479        1.5997190121
 O         -1.4944879256        2.2109279620        0.7876572199
 H         -1.1621200409        2.4726538205        1.6602393069
 H         -1.5755073901        1.2439336444        0.7774318810
 O         -4.5972633464        1.2662445211       -3.4384787220
 H         -4.7705724130        2.1933615762       -3.2330978287
 H         -4.0569051554        0.9461906523       -2.6798288588
 O         -1.6449409791       -0.0691044740        3.5180164483
 H         -2.2270894072        0.7011646976        3.5274769575
 H         -1.5290992445       -0.3144703133        2.5740493940
 O          1.9968325822       -5.4812330996       -0.9129112878
 H          1.4413195624       -5.2001713486       -1.6588657058
 H          2.9101919072       -5.4051385156       -1.2122244980
 O          6.5969222597        0.5682537756        3.2181095984
 H          6.2098196010       -0.2714278828        3.4981118383
 H          5.8501450240        1.1984923802        3.1958100837
 O         -0.9023183752        1.5479010695       -1.9723300030
 H         -0.4240109295        2.0691777248       -1.3049732825
 H         -1.2780409841        2.2025111872       -2.5962814869
 O          3.1727544928        0.1710733771        4.9563919593
 H          3.7119520933       -0.4926975637        4.4440210697
 H          3.2727175485       -0.0468072093        5.8826613644
 O          0.7072641541       -2.1460450726        3.6316285182
 H          1.5301664819       -2.6587005872        3.5883508770
 H          0.0148892377       -2.7744032420        3.3810737706
 O          4.1811837391        2.5321574491        0.5267511027
 H          5.1241499857        2.7164846017        0.3871395295
 H          3.7925018360        2.4346768893       -0.3568129584
 O         -3.1560662021       -2.4612706429        0.5296434158
 H         -3.3037555848       -3.0341842809        1.3072591104
 H         -4.0352616913       -2.1806679755        0.2054265789
 O          6.8578664662        2.4300873803       -2.7821010074
 H          6.8341500387        2.7180189904       -1.8588700743
 H          7.1290875394        1.4964752195       -2.7527543903
 O          4.7988949747       -4.9108989888       -1.2317362076
 H          5.3493555285       -5.6746431424       -1.0563748986
 H          5.3656357480       -4.2630029834       -1.6813529270
 O         -3.5629681951       -1.9089289696       -2.8214266537
 H         -4.4740085417       -1.9122333359       -3.1249529907
 H         -3.4991128685       -1.1792271326       -2.1732347311
 O          4.0198370161       -1.8253558831       -3.2862292383
 H          3.2358296173       -2.1087322929       -2.7642438499
 H          3.6378243406       -1.4528415078       -4.1151293807
 O         -3.2172904289        0.3475640648       -1.3672002908
 H         -2.3417759138        0.7699545809       -1.5029661198
 H         -3.4593986489        0.4475907036       -0.4331170223
 O         -5.6144984566       -1.7006799654       -0.2253271113
 H         -6.1900778315       -1.1420285115        0.3145405973
 H         -5.7753196805       -1.4481237637       -1.1557487822
 O          4.3347547879        2.0762097605        3.3639260581
 H          4.3108887418        2.9710825378        3.7015041271
 H          3.8563748471        1.5108625575        3.9960184865
 O          7.7007678618        0.2528420748        0.8970614458
 H          8.6220967493        0.0787012233        1.0963314486
 H          7.2558347663        0.3662353023        1.7896395758
 O         -3.0729193232       -2.0158654898        4.5970618959
 H         -2.4193558913       -1.3536651898        4.2672440939
 H         -3.0518456855       -1.9839428939        5.5531177201
 O          6.1235740961       -2.0982606157        0.3687054648
 H          6.6118741605       -1.2791010547        0.5176639693
 H          6.2749467851       -2.3568083503       -0.5599782571
 O         -8.0059527968        0.6678043149       -1.0312245745
 H         -8.9002684453        0.9565485009       -1.2147420456
 H         -8.0352008295        0.1251448064       -0.2221761607
 O          0.4746459328       -4.0332875146       -2.6610504714
 H         -0.4266451218       -3.9799009208       -2.2752541842
 H          0.4165704854       -3.6747531553       -3.5643101472
 O         -2.0276399242        3.5286594463       -3.3942912047
 H         -1.5248275056        4.2451673277       -2.9737802144
 H         -2.9333099189        3.6022443235       -3.0619727119
 O         -0.8513976530       -4.3466563125        2.7204546657
 H         -0.7079358336       -5.2194364171        3.0880590892
 H         -1.8111129484       -4.2682133663        2.5873599990
 O          7.2766931437       -0.1737392233       -1.9589301556
 H          7.7209341115       -0.0530180546       -1.1153566496
 H          6.3161877641       -0.1160065636       -1.7515622279
 O         -5.5605666876        1.2858482595        4.3405706923
 H         -4.7381297220        1.7586888762        4.1366081697
 H         -6.2483524647        1.6987099060        3.7958593981
 O          4.0990092026       -0.0652309128        1.2075408428
 H          4.1378131948        0.9114352443        1.2602117830
 H          4.3926364600       -0.2694816385        0.2931410948
 O         -0.4869000593        5.1485253962       -1.7540121485
 H          0.0984395892        5.8571884985       -2.0197893525
 H          0.0725519830        4.4487315416       -1.3432949693
 O          6.8721816415        2.7080810763        0.0379319140
 H          7.4500347349        3.3479530753        0.4543118793
 H          7.1839077526        1.8188117383        0.3044568540
 O         -4.4661159396        3.5739441490       -1.8906935133
 H         -5.1150748903        3.1534181545       -1.3083789478
 H         -3.8211741301        3.9838014053       -1.2774145561
 O         -5.9886462626        2.1979709484        0.0605693235
 H         -5.3036489966        1.5526694643        0.3665270625
 H         -6.6317271368        1.6925852976       -0.4668976408
 O         -6.2403075993       -0.7629834542       -2.6961493020
 H         -5.7160387673       -0.0500821584       -3.1116654665
 H         -7.0390652441       -0.3308838842       -2.3702125513
 O         -7.3432289213        2.0846034591        2.3780142244
 H         -6.8494967788        2.2737351079        1.5470952349
 H         -7.9521970844        2.8098563341        2.5171665458
 O         -1.9685129835       -3.7639609681       -1.6097662278
 H         -2.2382627027       -3.4394980295       -0.7375492104
 H         -2.5482705685       -3.2843262773       -2.2209638247
 O          6.3089242535       -2.7998355957       -2.2901739811
 H          6.9686772359       -2.1199287573       -2.4841872027
 H          5.5126695444       -2.5159406653       -2.7836344738
 O          4.6299956760       -1.4149251940        3.4708123122
 H          4.5323423107       -0.9880146160        2.5940037790
 H          4.1850413907       -2.2757190669        3.3895653902
 O         -1.1628141104       -0.8479729493       -3.6797530732
 H         -1.4766590201       -0.0890926444       -4.2182530118
 H         -1.9690916207       -1.3288120294       -3.4382038372
 O          4.4647900847        2.8474703737       -3.8947895689
 H          5.3867070983        2.7656101073       -3.5582212600
 H          4.4354769875        2.3796782979       -4.7308915938
 O          0.3404082681       -2.5534055112       -4.9717401898
 H         -0.2070093399       -1.8682023813       -4.4962111730
 H         -0.1527374826       -2.7986246624       -5.7544815156
 O         -3.5621560561       -3.9756665681        2.7255743973
 H         -3.4501023386       -3.4009876582        3.4996107807
 H         -4.5282168309       -4.0090935664        2.5538343416
 O          3.0001356789        1.9828027977       -1.9124563600
 H          2.3560791912        1.3569384715       -2.3323639933
 H          3.4795304143        2.4069451872       -2.6659320955
 O         -7.5904137048       -0.4835566908        1.3958013757
 H         -7.7735729842       -1.2190636514        1.9843945194
 H         -7.5272193234        0.3196884030        1.9412333978
 O          3.0302378261       -3.5438371328        2.9310029005
 H          3.1407195672       -3.4129711382        1.9546726557
 H          3.1206983244       -4.4831503077        3.0883392558
 O         -5.0881539212       -0.9620873448        3.0714968994
 H         -4.3988009101       -1.3855954281        3.6112036084
 H         -5.3860552731       -0.1911329382        3.6142637037
 O          0.9561575299        0.7962272841        3.5070435294
 H          1.6633317576        0.5292753667        4.1172026387
 H          0.1878652207        0.2357361554        3.7094215791
 O         -6.0752336512       -3.3006037508        2.0624612529
 H         -6.0529004809       -3.1630744897        1.1070756438
 H         -5.8626270434       -2.4323422327        2.4503133326
 O         -2.6114107050        4.4385095979       -0.1491751030
 H         -2.1937597761        3.5963880557        0.1299171371
 H         -1.9249275883        4.9188269860       -0.6331128993
 O          2.4939439676       -0.7975030951       -5.1829589144
 H          1.8533550794       -1.5174500046       -5.3060125570
 H          2.0455282277       -0.1826545467       -4.5801355123
 O         -4.5808591370        4.1054783658        1.6903043203
 H         -5.1661550548        3.6422110508        1.0798757641
 H         -3.8804188028        4.4836940859        1.1328821727
 O         -1.4141703832       -0.4322061695        0.9885006737
 H         -0.4500550778       -0.5997247665        0.8349926946
 H         -1.9161792582       -1.2035401371        0.6760409235
 O          2.6949700878        5.4717273245       -0.9554578557
 H          3.4610664924        5.0283071761       -1.3240351267
 H          2.1688217889        4.7906100666       -0.5186977165
 O          1.1444248150       -0.8634025154        0.7015763677
 H          1.9169584895       -0.5845870726        1.2004296151
 H          1.1575282751       -1.8348663133        0.7108518662
