  601
      -1018.94865321
 H          0.3058867501        0.9072884972       -0.1046690886
 O          0.5886039799        1.4775261202       -0.9571113601
 H         -0.1766403490        1.4557953426       -1.6055800739
 H          0.8265557345        2.4364876583       -0.6712462793
 O         -2.8999783809        0.8039764964       -0.2669145090
 H         -2.2625452127        0.8049116900       -0.9998187441
 H         -3.3967695425       -0.0215076890       -0.3556910298
 O         -3.7849901405       -1.5866530457       -1.3379594455
 H         -2.7978723850       -1.5723540503       -1.3092513049
 H         -4.0676975330       -2.3636253095       -0.8226790396
 O         -3.1989773876        2.2250537584       -4.1668058293
 H         -3.9008031555        2.8992040473       -4.0862725198
 H         -2.4665422899        2.6560425967       -4.6647523210
 O         -1.1962786294       -1.3838617548       -1.4146215893
 H         -0.9325225281       -1.9108286907       -0.6303395408
 H         -1.1082683008       -1.9447913079       -2.2047170257
 O          0.0706472853        0.6598137321        5.7002438230
 H          0.1779611940        1.0732229349        6.5809844889
 H         -0.8667351825        0.8012538976        5.4548308736
 O         -3.8860177585        2.9877653602        1.0378237723
 H         -3.5059713485        2.2623187477        0.5130830054
 H         -4.8534554815        2.9182640764        1.0138707657
 O          1.1999817303       -0.8416126000       -2.4992575561
 H          1.7338426459       -1.0814980662       -1.7170689708
 H          0.2972705017       -0.7703242645       -2.1494364261
 O          1.3005937553        3.8547869089       -0.3866493397
 H          0.5925870068        4.5306088933       -0.3535164704
 H          1.8569746117        4.0582389483       -1.1662370326
 O          2.9503936240        1.7537666641        0.5875325342
 H          3.0465110149        1.1956219704       -0.2025073544
 H          3.8377751491        2.1064316774        0.7355240049
 O          1.6210387823        1.2972885612       -5.5928234249
 H          2.3385994005        0.6408658401       -5.4786574534
 H          0.8099741955        0.8523362697       -5.2835931375
 O          8.0403729048        3.2661806483        1.6628501021
 H          7.9088018294        4.2047248242        1.8588611037
 H          8.5449328441        3.2357178601        0.8241499859
 O         -1.0044044543        3.0175521737        0.8754646056
 H         -0.5786298477        2.3196438260        1.3932836753
 H         -0.9916714505        3.7971062138        1.4532954392
 O         -1.4256727709        1.0579674576       -2.5311490952
 H         -2.0881633582        1.6406631285       -2.9460592392
 H         -0.9994676837        0.6111949752       -3.2952440216
 O          5.2950300017        3.1902518465       -1.5999457287
 H          4.4014719463        3.5912638414       -1.6449256561
 H          5.5470833025        3.0592971326       -2.5302120289
 O          4.1452924178        0.2265784893       -1.2509323104
 H          4.5268706127       -0.1328562453       -0.4237732412
 H          3.8969941403       -0.5851540897       -1.7453960637
 O         -3.9477269706       -0.1994825849       -8.2970148000
 H         -4.1336419942        0.7140781578       -8.5294650444
 H         -3.5443974985       -0.1492664191       -7.4031151767
 O         -0.0803480221        0.2072030703        1.0255106830
 H          0.6871908907        0.2154367225        1.6402643187
 H         -0.2724400387       -0.7422740927        0.8914096635
 O          1.9336570355       -1.4196416026        8.1312953757
 H          1.0480856804       -1.1575393442        8.4156377908
 H          2.4300960366       -0.6098919667        7.9280824368
 O         -3.0490212888        5.4582402048        0.9413713391
 H         -3.3654595098        4.5323746362        0.8340180762
 H         -2.3318071173        5.4121346361        1.6030992854
 O         -3.2578137682        3.1518917049        3.6300736272
 H         -3.1772413457        2.9753948425        2.6741261020
 H         -4.2164297307        3.2950924164        3.7578845523
 O          1.4648242475       -4.1102712950        0.0997167322
 H          0.8349462663       -4.8427493465       -0.0696918342
 H          2.0638127840       -4.4657758938        0.7751592133
 O         -3.4837080894       -1.8074456549        1.8467291895
 H         -2.7108954886       -2.3086904985        2.1248160520
 H         -4.0070610971       -2.4204871306        1.3069397897
 O          4.0772083617       -3.8680471772       -0.8233748155
 H          4.9329887636       -4.1804843196       -1.1779477176
 H          4.1693212852       -3.6572762284        0.1174537880
 O         -0.9849299134       -2.5455496674       -3.8226589481
 H         -0.7409111202       -3.4240006303       -3.4530644465
 H         -1.9484932906       -2.5323512396       -4.0043109679
 O          3.5383219701       -0.5044599797       -5.1878905566
 H          3.0882565127       -1.3294028595       -4.9439484495
 H          4.1916594107       -0.2930763092       -4.4893747433
 O          2.4615680317        1.4602753238       -2.9879157978
 H          3.1552982890        1.3983916920       -2.3252359454
 H          1.9811199481        0.6107250073       -2.9328752285
 O          2.3029687542       -1.5107160645       -0.1802960869
 H          2.2211443797       -1.2070835558        0.7281298129
 H          2.2320116153       -2.4718962471       -0.1616899850
 O          5.5281189714        0.4010320334       -3.5786545388
 H          5.6090410921        1.3069238277       -3.9009044235
 H          5.2019005372        0.4462029318       -2.6585217202
 O          3.8243418182        4.7982428006        0.6025028099
 H          2.9533459044        4.4614384650        0.3434684783
 H          3.9656754402        5.6272084570        0.1063894386
 O         -1.7892637303        3.5617922631       -1.5953750019
 H         -1.5226437904        3.3643263829       -0.6739745249
 H         -1.0287910271        3.3223698919       -2.1587231783
 O         -3.4548541572       -0.1360659775        8.8254703330
 H         -3.6412463782        0.6515771906        8.2509903528
 H         -3.8486734071        0.0463427377        9.6773331686
 O         -2.4922062935        0.6705670500        2.3750787809
 H         -2.1030507603       -0.1846758494        2.6355046861
 H         -2.4013592382        0.7113639545        1.4044352005
 O         -0.4167362172       -9.1495234753        0.5583333634
 H          0.1958960181       -9.0594905200       -0.1872937715
 H          0.0151871286       -8.7038488567        1.2976144009
 O         -0.1643365542        1.7279115870        3.1571329843
 H         -0.2498499656        2.4646219064        3.7798238984
 H         -1.0714446664        1.4297373380        2.9740461388
 O         -4.0109493522       -0.9910721557        4.3886606033
 H         -3.8205774391       -1.8764815567        4.7401535684
 H         -3.9694588057       -1.1187456253        3.4209651217
 O          3.0531569338        4.3579177820       -2.3008660045
 H          2.9633352825        3.9245427309       -3.1740298769
 H          3.2095247636        5.2965898828       -2.5052851475
 O         -6.5582906306       -1.4758612697       -1.2003089982
 H         -6.9887399376       -0.9987857714       -1.9434076428
 H         -6.1994475728       -2.2916380888       -1.6262529761
 O          5.6263957085        3.0910203189       -4.3134587890
 H          4.6517462689        3.1529931366       -4.4889843796
 H          5.9151492422        4.0268294444       -4.2269723161
 O          3.9852503471       -2.0059145503       -2.6702334991
 H          4.0041848310       -2.6116858142       -1.9010145613
 H          4.8886037595       -2.0132837046       -3.0332030467
 O          0.3965798005        3.0980007956       -3.1432478161
 H          0.6929059919        4.0285692566       -3.1034739251
 H          1.1937404994        2.5253125441       -3.1008917932
 O         -1.5677526167        7.6888823251        3.8772131170
 H         -1.9441388901        8.3930345227        4.4051580751
 H         -2.0671796335        6.8747454499        4.0783777895
 O          2.1476376208        3.5461374653        2.6556035486
 H          2.2625495855        2.9409481934        1.9125929684
 H          1.8038187196        4.3732561582        2.2635238822
 O          2.0672647504        8.8422506587       -3.1739629634
 H          1.7193478671        9.1525047940       -2.3316551281
 H          1.3039392439        8.6062160551       -3.7223322989
 O         -0.5370016725       -0.0286744493       -4.7520189531
 H         -1.3582219447        0.0200170589       -5.2919818894
 H         -0.4580574241       -0.9495045892       -4.4691460699
 O          2.0258722753       -2.7181972733       -4.2599969228
 H          2.8451221105       -2.7652228580       -3.7310237336
 H          1.4808088989       -2.1098274618       -3.7254098326
 O         -1.8975915645       -3.9608128464       -0.6570239825
 H         -2.0495978725       -4.6542752502       -0.0093607580
 H         -1.0990817923       -4.2252876133       -1.1556962906
 O         -1.7382901824       -3.9033995127        2.5054572563
 H         -2.1853170487       -4.6177094152        2.0071886689
 H         -1.0194319260       -4.3335903139        3.0305832524
 O         -6.4130362403       -5.0716807000        5.4265063786
 H         -6.4789177151       -4.2380044554        5.9170524337
 H         -6.3593124729       -4.7963149944        4.4964329142
 O         -5.8688542351        3.9011986433        3.6347349593
 H         -6.1833981676        3.5822697030        2.7669743401
 H         -5.6241603808        4.8303498392        3.4363841237
 O         -6.6761166581        4.1354158023       -1.2212347772
 H         -5.7543005862        3.8299322373       -1.4233257118
 H         -7.2162048432        3.6163110469       -1.8285287079
 O         -2.8126420912       -2.7168790700       -6.4201426525
 H         -2.3810281383       -2.5423332238       -7.2713567027
 H         -2.4160807843       -3.5172184713       -6.0365776606
 O          1.5296480742       -1.6055963197        5.4876898042
 H          1.7090262024       -1.7689939812        6.4293586213
 H          0.9570778060       -0.8167066313        5.4827325062
 O          4.7951136800        3.0622026470        7.2145035428
 H          5.6786476930        2.6154137737        7.2443210285
 H          4.9587083025        4.0176563406        7.1639296337
 O         -0.4451326320        3.7576129740        4.9017684262
 H          0.4528255645        4.0205613893        5.1682523560
 H         -0.9603168656        3.6159615251        5.7137601589
 O         -0.1994014950       -4.6970668832       -2.5089933360
 H          0.7577304712       -4.9001120197       -2.4483340464
 H         -0.6544494800       -5.5339533167       -2.7112751655
 O          6.3547729479       -3.4171293893        0.8499539073
 H          6.1374163266       -4.3592910329        0.9270533974
 H          6.7825243393       -3.1282772578        1.6814442095
 O         -3.4150897092       -3.5630767333        4.5400491250
 H         -2.7213267634       -3.6464698682        3.8580139175
 H         -3.4929332688       -4.4348883188        4.9803004241
 O         -5.8048540939        0.3043133143        5.9594196429
 H         -5.1997321698       -0.2408487605        5.4169329529
 H         -6.4063211287        0.7155646971        5.3198519946
 O          5.5060702354        2.7207266092        1.0937333470
 H          5.0951206442        3.5807845190        0.9117405885
 H          6.4557380581        2.8705622066        1.2918951450
 O         -1.3854943677       -1.8751367277        6.0185715579
 H         -2.3165719494       -2.0657709405        6.2250155141
 H         -1.0505916355       -1.3555884648        6.7757817869
 O         -2.0567107616       -2.0530948434       -9.0071953546
 H         -2.8290638558       -1.4675816819       -9.0410292399
 H         -1.3195013285       -1.4628306708       -8.7600841053
 O         -2.4988346611        1.0914748586        5.1589675069
 H         -2.9845941425        0.2996495659        4.8418153040
 H         -2.7014330740        1.8145518607        4.5272264305
 O          0.0244341020       -2.7659701816       -6.3500002826
 H          0.9930146075       -2.7984783660       -6.3264636486
 H         -0.3005551631       -2.7588811410       -5.4313139849
 O          7.6000399435       -2.5997620984        3.0548186609
 H          8.4158640749       -2.4110125665        2.5684281543
 H          7.3038676688       -1.7331826438        3.4253940651
 O         -0.9195577800        8.0523252698        1.2341544464
 H         -1.0749130349        7.8989621904        2.1774706638
 H         -1.7876150810        8.2306964561        0.8443443538
 O         -2.8059050758       -4.6797440957        7.8014634812
 H         -2.8352685451       -4.7398127477        8.7553032763
 H         -3.2046609046       -3.8151774664        7.5542365637
 O         -5.1136289748        0.6211407959        2.2671437814
 H         -4.1403523069        0.6631509512        2.4129165659
 H         -5.2534624442        0.8255587555        1.3199528985
 O          0.7641978397        5.7165422611       -2.9604916055
 H          1.0343450741        6.0294183139       -3.8370106542
 H         -0.1623945171        5.9715308383       -2.8180350383
 O         -4.2250073708        5.0799990094       -6.4386307033
 H         -4.8652047269        5.6950151754       -6.7942569972
 H         -4.6190081624        4.7054383699       -5.6192544701
 O          6.8818423430        1.0898315116       -0.9350954056
 H          7.4561606968        1.4663025118       -1.6233426516
 H          6.1729178583        1.7384146098       -0.7964378846
 O         -4.6885797234        6.2598689771       -2.6605338834
 H         -5.0422979084        6.4095633582       -1.7771891766
 H         -3.7170397555        6.2694128513       -2.5907190344
 O         -0.7652184653       -0.6342920103        8.3529604333
 H         -0.4365643105        0.2826288380        8.3580496943
 H         -1.6827264941       -0.5752474974        8.6591875191
 O          0.0657505533       -5.0840831264        3.9359680167
 H         -0.1096249026       -4.9485658005        4.8923098927
 H          0.8613245558       -4.5455845256        3.7450967737
 O          2.2639087053        1.4834410562        4.4986221236
 H          2.2077291343        2.2902251739        3.9651517308
 H          1.3615646857        1.3098125361        4.8393992591
 O         -5.7676100654       -3.5588193297       -2.5652501833
 H         -6.3457587542       -4.3364995585       -2.6118701141
 H         -4.8645702469       -3.9274369012       -2.5821906193
 O          4.3137410765       -5.4206151246       -4.2018428992
 H          5.0153489667       -5.1840378057       -3.5559209931
 H          4.5299640293       -6.2877137472       -4.5414041190
 O         -7.9763691019       -0.5504134510       -3.2530984274
 H         -7.3423328007       -0.7192596724       -3.9690166246
 H         -8.4691645572       -1.3820084971       -3.1282871538
 O         -2.4971499505       -7.7579440616       -0.5970900952
 H         -2.0913165925       -7.5158039964       -1.4483588055
 H         -1.8589093142       -8.3535694784       -0.1655525622
 O         -5.7400457024        0.8764602791       -0.2972383897
 H         -5.7404415561       -0.0059481433       -0.7103656597
 H         -6.6645833226        1.0175141106       -0.0466635601
 O         -2.9665271905       -0.0169791903       -5.7674934484
 H         -3.2328716815       -0.8386107235       -5.3232293132
 H         -3.3719089088        0.7367401147       -5.3045147939
 O          5.9878045462       -6.1047144187        0.5599177154
 H          5.2161774464       -6.4444696055        0.0541336119
 H          6.7746644562       -6.2691559451        0.0362199775
 O         -7.6293241723       -1.5051439615        4.1265448383
 H         -7.6790148320       -0.5438628179        4.1518218082
 H         -7.3070650370       -1.7308262755        3.2405260439
 O          1.3682484401        5.9583947654        1.7904956224
 H          1.8864757360        6.5925206893        2.3258694937
 H          1.5659683774        6.1738215317        0.8506727395
 O         -1.7097068464        3.6721267859        7.3097943893
 H         -2.6442638226        3.5967067007        7.5123252435
 H         -1.4656888193        4.6207150786        7.3688395491
 O          2.9905897822        7.5428601972        3.1857122959
 H          3.6906651963        6.8701278987        3.2581064338
 H          3.2393979741        8.1247161677        2.4369019429
 O         -6.0633949459       -1.2891483549       -5.1074079649
 H         -5.2835992642       -1.4226055362       -4.5328631717
 H         -5.7958619427       -1.6527100145       -6.0011718493
 O         -4.6730200576       -3.6367975749        0.1965274849
 H         -4.1976148420       -4.4616994337        0.3754374779
 H         -5.5866633524       -3.8764585722       -0.0266466984
 O         -4.0392541034        1.8213488596        7.1402138797
 H         -4.8154793930        1.3134245734        6.7936599668
 H         -3.3344196752        1.6167748828        6.4723171397
 O         -5.1590051626        4.1182779600       -4.1398547614
 H         -5.9024213212        3.6136828472       -3.7904972261
 H         -5.0343882120        4.8918086843       -3.5406426145
 O         -0.1550737710       -6.1875771190        0.0632209602
 H          0.2959991921       -6.8384135576       -0.5098810425
 H         -0.1180154817       -6.5442225279        0.9557966896
 O          3.3157158004        0.6778862560        6.8825502746
 H          2.9896472609        0.9130854423        5.9937704385
 H          3.7444056999        1.4757406002        7.2146646675
 O          4.9486103458       -6.2058407803        3.0843722152
 H          5.2505700777       -5.4015004702        3.5231296159
 H          5.4834334354       -6.3092789358        2.2813918345
 O          2.3867168720       -5.2640120040       -2.3141364183
 H          2.9224526861       -5.2844531002       -3.1251859066
 H          2.7585994452       -4.5672328045       -1.7403851488
 O         -1.3785012239       -7.1070047949       -3.0345794552
 H         -0.5086303758       -7.4475598587       -3.3174998232
 H         -1.9676202207       -7.2512694911       -3.7842787713
 O         -3.3210721622       -4.6860436816       -2.7014091877
 H         -3.6528408959       -5.5746055156       -2.5308249914
 H         -2.8488721261       -4.3872741876       -1.8851338964
 O         -6.4142093558       -2.4562115413        6.2991676705
 H         -6.9169285262       -1.9965670217        6.9715538501
 H         -6.7853768827       -2.1340256810        5.4415699598
 O         -3.3807421955        7.9816400336       -0.0639272322
 H         -4.3197867028        8.1635106072       -0.1403762283
 H         -3.3337122784        7.0347310959        0.1622870365
 O          2.7112124931       -4.7522181494        4.7378905603
 H          2.5294720432       -4.5104115806        5.6627688376
 H          3.5885076508       -4.4189141798        4.5323240964
 O          1.3713770341       -2.8650407077        3.1062169058
 H          1.5156910763       -2.5375892383        4.0095206490
 H          0.6200855701       -2.3447764588        2.7798775910
 O          2.1821099963       -0.0695209998        2.3378222949
 H          2.1443465492        0.4164643371        3.1894967592
 H          2.5845635041        0.5869757538        1.7245435525
 O          2.6492970120       -5.8752564065        1.7293438136
 H          1.9444831248       -6.4167822135        2.1087055040
 H          3.4169016820       -5.9478340377        2.3315204399
 O         -2.7775885624       -7.3401767953       -5.5834565592
 H         -3.5765313113       -7.3510571415       -5.0206100080
 H         -3.0858984969       -7.0643578901       -6.4540595922
 O          3.6864584913       -3.1474723632        1.8124844602
 H          4.2852947164       -3.4923962448        2.4863098154
 H          2.8169778615       -3.0400660302        2.2562205176
 O          0.9907077168       -5.1807862882       -5.0666077888
 H          0.0312798930       -5.0222009051       -5.0940705113
 H          1.4009328384       -4.3603659429       -4.7408370657
 O          2.0993940081        4.6946291574        5.1441590413
 H          1.6990323783        5.5805566614        5.0098170285
 H          2.3435241462        4.3453523024        4.2707946924
 O         -3.9292738887       -5.9332320873        5.5935232251
 H         -4.8982710905       -5.7327383684        5.6405967017
 H         -3.5738354285       -5.8334069852        6.4851647103
 O          8.2487171130        2.1484924317       -3.0557053945
 H          7.6872986628        2.5975709401       -3.6929394346
 H          8.4348951023        1.2589304162       -3.4319516058
 O         -0.4258971711       -4.3174751142        6.4335364680
 H         -1.1829477717       -4.6631218099        6.9296354179
 H         -0.6738697931       -3.3876020788        6.2152160197
 O          1.9919215477        6.6844178203       -0.7116561824
 H          1.5514287925        6.2733368538       -1.4750008334
 H          1.6361538137        7.5888606699       -0.6851385446
 O          5.1730810523        2.8628353927       -7.1442125457
 H          5.0935291152        1.9186024011       -7.3440861483
 H          5.5735708342        2.9161462712       -6.2672868859
 O         -1.0744802295        3.2713411149       -5.3033259037
 H         -0.9657276015        2.7383323044       -6.1203251976
 H         -0.3809635801        3.0484116915       -4.6478322715
 O         -4.7644530608       -4.4326568325       -5.0957372444
 H         -4.4347290660       -4.6946755794       -5.9746014660
 H         -5.7154128440       -4.2457377627       -5.1576281719
 O          0.7389560833        9.0732459120       -0.6454894463
 H         -0.0342149347        8.9194483424       -1.2337558022
 H          0.3566371279        8.9636349300        0.2384681998
 O         -1.8078869669       -4.8696324529       -4.9892693661
 H         -2.3646454297       -4.7865097995       -4.1889622289
 H         -2.0543677895       -5.7307193437       -5.3672185081
 O          8.1631378484       -0.4103377204       -3.7535224542
 H          8.5745114391       -0.9335548564       -3.0459132922
 H          7.2210192920       -0.2908123100       -3.5240462558
 O         -1.7886345906        5.7944424773       -5.3944888135
 H         -2.6444225551        5.7134713071       -5.8468222304
 H         -1.3985602905        4.8935995190       -5.4582958859
 O         -2.9830941277        5.5620784545        4.7894041967
 H         -2.7979564755        4.7305386996        4.3008685830
 H         -3.6351101887        5.2746292011        5.4652426399
 O         -1.9991581550        5.9267779420       -2.7750217629
 H         -2.0057636748        5.8165512289       -3.7544851693
 H         -1.9865299603        5.0399607185       -2.3545540900
 O          2.4866493596        0.0034485189       -8.6015434436
 H          2.1329070197        0.9145962472       -8.5602876666
 H          3.4285903173        0.1035700188       -8.3815853672
 O          7.3284359063        2.1383269489        4.1252558475
 H          7.2070488042        1.1703347657        4.0186577684
 H          7.7461154365        2.4369091260        3.3055114372
 O         -0.2393503445        7.9954153205       -4.5698710036
 H         -0.8127988185        8.4096006580       -3.9140651680
 H         -0.7727189374        7.3012653279       -4.9876047626
 O          5.6486084953       -0.7087267802        6.6393850508
 H          5.5146821046       -1.6427808954        6.8766085638
 H          4.7671384880       -0.2914204248        6.7025742481
 O         -0.3164626393       -2.3779328631        0.8569339605
 H         -0.9144022497       -2.8976272236        1.4226806706
 H          0.4041741733       -2.9910804473        0.5858924553
 O         -3.6706364032       -2.1391999384       -4.0045640333
 H         -4.0015226992       -3.0030664429       -4.3177418682
 H         -3.8374320852       -2.0845172109       -3.0444906618
 O          3.6620355766        6.7605885423       -3.3927237990
 H          3.2451348266        6.4463286594       -4.2156560962
 H          3.1821876622        7.6066241090       -3.2341730931
 O          5.0023506553       -3.3500717904        6.9004137639
 H          5.1674570829       -3.6403228118        5.9928611830
 H          4.1502605620       -3.7086186718        7.1688637607
 O          2.6030151674       -7.4331101287        4.2696893566
 H          3.5207634051       -7.5906152219        4.0347899731
 H          2.5712102081       -6.4917525273        4.5399649592
 O          1.3003591022       -8.0489973332       -1.2707940730
 H          2.2078297367       -7.8443391522       -0.9742206898
 H          1.3051150485       -7.9140458690       -2.2299195924
 O         -7.1498490527        1.2785586792        3.7770020551
 H         -6.3431559729        1.0767188279        3.2370039510
 H         -7.1382028499        2.2292358546        3.9144888472
 O         -0.5889736287        5.8182623912       -0.3578864911
 H         -0.5034487344        6.6092864719        0.1969053074
 H         -1.4983219018        5.5219230351       -0.2435549210
 O          3.5188611070        8.8108523421        0.9002489413
 H          3.9679078643        8.1810278180        0.3100297808
 H          2.7951253366        9.1878845698        0.3949297856
 O          4.8569634249        3.1227640541        4.4812366447
 H          5.7905783351        2.8389249180        4.3587106413
 H          4.7012507127        3.1149398223        5.4421924241
 O          0.9162738739        7.0455247709        4.8612397831
 H          0.1056474592        7.2766310122        4.3761761621
 H          1.6466290855        7.4935795761        4.4071669584
 O         -0.9994103714        5.1148392325        2.6215978329
 H         -0.1585300056        5.5211134027        2.3264688403
 H         -0.8193536465        4.6548893816        3.4602609424
 O          6.1799673419        5.6014846469       -3.6721963460
 H          5.3678565439        6.1312793182       -3.6342658402
 H          6.5953206041        5.6531903229       -2.8040613340
 O         -7.4163573127       -3.6117250180       -5.0447720540
 H         -7.8652480084       -3.6402208342       -5.8890800081
 H         -6.9996062795       -2.7232884878       -4.9747518360
 O         -8.7333196081       -3.1097836337       -2.6120123915
 H         -8.3533229913       -3.5039466606       -3.4132130638
 H         -8.2600919092       -3.5146168810       -1.8751836374
 O          8.2320439930       -4.5563078739       -0.8395022983
 H          8.7762383385       -3.8651689774       -1.2561407751
 H          7.7402908833       -4.0794948153       -0.1451664165
 O         -0.2026965929       -0.5500531608       -7.7806369553
 H          0.6773728295       -0.3982647021       -8.1439063334
 H         -0.1272693934       -1.3031929748       -7.1527333628
 O          4.6247813060        5.3563869385        3.0795729293
 H          4.1800851107        5.0893914554        2.2448984539
 H          4.6775111571        4.5310584783        3.6204072810
 O          1.9297926211        6.2379944521       -5.4289399181
 H          1.4894868359        7.0194355487       -5.7687920974
 H          2.2426343137        5.7125456317       -6.1845706335
 O          4.7247088202        6.9686404768       -0.7558388254
 H          4.2961991544        7.0085111935       -1.6185361483
 H          5.5842823111        6.5239884274       -0.8787758198
 O         -7.0520044044       -5.9711144044       -2.4012461925
 H         -6.2898887284       -6.1846932340       -1.8166098569
 H         -7.8230508368       -5.9396316805       -1.8352392851
 O          2.9587854456        4.4415969403       -7.2264930617
 H          3.8399656464        4.0500987774       -7.3802682104
 H          2.3355765467        3.8143334794       -7.6464859961
 O          6.5580326892       -0.4338967631        4.1594608565
 H          6.2631669690       -0.6053241573        5.0807657266
 H          5.7623243146       -0.1003871894        3.6984183472
 O          6.4158697185       -1.6113120200       -1.2619005674
 H          6.2326562969       -2.0739040777       -0.4318951756
 H          6.4920580724       -0.6630691861       -1.0612389615
 O          3.8646586545       -1.3711367745        4.2224114363
 H          3.4679563066       -1.0098806012        3.4173023307
 H          3.1247883024       -1.4310008546        4.8535018398
 O         -7.4166607680       -4.2296247626       -0.0289517553
 H         -7.9070166309       -3.5609998344        0.4654442514
 H         -7.2570878762       -4.9694391122        0.5705123085
 O          2.5163054753       -2.4193241282       -7.3643902917
 H          2.4554781218       -3.0258862094       -8.1026440209
 H          2.5018571632       -1.5196330345       -7.7453083786
 O         -1.9172792368       -8.8825612755        3.0571642720
 H         -1.0983399257       -8.3614713341        3.0823715193
 H         -1.8362320505       -9.4720764514        2.3037606049
 O          1.3858780705        2.3966073363       -7.9710617815
 H          0.4308001237        2.4378670990       -8.1192526177
 H          1.4761690275        2.0089925062       -7.0656737191
 O          1.1042548347       -7.5590659349       -3.9914859285
 H          1.1620604647       -6.6346956213       -4.3592843794
 H          1.1729414891       -8.1493495955       -4.7403602616
 O          4.7411043601       -3.3650959678       -6.0666085783
 H          3.9426893454       -2.9578131485       -6.4425535946
 H          4.4363782238       -4.1191491395       -5.5396043472
 O          6.7905559866        5.2534020459       -0.8850219641
 H          6.8705563901        5.3654661059        0.0795879662
 H          6.2477696170        4.4370422656       -1.0358793044
 O         -4.9404250363       -6.3958378153       -0.8425410904
 H         -5.3225831193       -6.3527630147        0.0573684340
 H         -4.2966904228       -7.1133834869       -0.8399115491
 O          9.0390388798        3.6086572137       -0.8020960313
 H          9.0170609714        3.0418892352       -1.5838325705
 H          8.4304005724        4.3385328386       -0.9948435824
 O         -4.0040054977       -7.1918838487        3.1368634362
 H         -3.3426985964       -7.9108196753        3.1536178153
 H         -3.9842118087       -6.8041819174        4.0255398898
 O          3.0540606297        3.4104025289       -4.7672813333
 H          2.9965498172        3.8757934400       -5.6270004123
 H          2.5418266869        2.5842292016       -4.8744199773
 O         -5.6349318058        1.3762722661       -5.6650448901
 H         -6.1218585424        1.8430177322       -4.9781089937
 H         -5.8045287354        0.4319212799       -5.5100202634
 O          6.1095639815       -4.5853051523       -2.4029282308
 H          6.9440668101       -4.7100460905       -1.8952670693
 H          6.2554038984       -3.7679534878       -2.9217550748
 O         -1.2229610161       -4.5381373382       -8.1016605517
 H         -1.4498673285       -3.8268650380       -8.7173625173
 H         -0.6916211160       -4.1079329170       -7.4091795933
 O         -4.7644982854       -6.8161801188       -3.8897393809
 H         -4.7823883452       -5.9032255552       -4.2555465930
 H         -5.6643172555       -6.9960461107       -3.6105594981
 O         -2.9876606694       -5.7863217597        1.1485174266
 H         -3.4250493556       -6.2576334786        1.8955871495
 H         -2.7294404846       -6.4964308786        0.5207790201
 O          9.3943022891       -1.5707199598        1.1395516377
 H          8.6899495118       -0.8727294219        1.2599341120
 H         10.2197601876       -1.1695016853        1.4070223765
 O          7.4698168230        0.1452308727        1.4798763219
 H          6.6410682912       -0.3618478970        1.4613930514
 H          7.4299692295        0.6876983025        0.6730241705
 O         -5.6047268781       -3.9448767826        3.0381234278
 H         -5.8354183225       -3.1375037258        2.5438771900
 H         -4.7923675525       -3.7430331010        3.5494235651
 O         -8.1587084343        0.7752404920        1.1076998459
 H         -8.5151718169       -0.0850185602        0.8155442575
 H         -8.0891253446        0.7155016599        2.0689385907
 O          8.9767797093       -2.0420956829       -1.6051419315
 H          7.9954578788       -1.9448904876       -1.5150365093
 H          9.3200810527       -1.8327699614       -0.7226226428
 O         -6.6574629250        3.1255998573        1.2004049383
 H         -7.3222747136        2.4268110944        1.2127100906
 H         -6.7509328353        3.5750316832        0.3286621752
 O         -1.4825498992        8.4584437224       -2.0327163618
 H         -2.2095706691        8.6490707869       -1.4249741481
 H         -1.5698601042        7.4999995044       -2.1934111867
 O          3.6384343232       -6.8937733197       -0.5164356898
 H          3.3258723058       -6.2899682243       -1.2183437808
 H          3.2507855018       -6.5302553263        0.3130804850
 O         -3.6774393241       -5.3801458890       -7.4421119287
 H         -4.2022589165       -5.0967049132       -8.1908995169
 H         -2.7471185952       -5.1152710855       -7.6488089891
 O          6.2540662551       -2.4950603544       -4.0762519779
 H          7.0450673150       -1.9978185610       -4.3075566719
 H          5.7842674272       -2.7386355340       -4.9010882870
 O          4.9502279190       -0.8827218667        1.0671464322
 H          4.6614891504       -0.2616434116        1.7524839249
 H          4.5122476586       -1.7344344876        1.2555099209
 O          2.1238112105        3.5735763954        7.7020427213
 H          2.0841852720        3.9934129219        6.8319480191
 H          3.0593984021        3.4056891944        7.8610367441
 O         -4.7964491368        4.2951854820        6.2696356334
 H         -4.5749516742        3.4170359329        6.6366729335
 H         -5.4380642136        4.1384451807        5.5681035603
 O         -8.8508778530       -1.7056099941        0.1339411760
 H         -9.5691860365       -1.8479029449       -0.4830673705
 H         -8.0309312428       -1.6661764189       -0.4103642813
 O         -5.8362764861        6.5218856787       -0.0509475788
 H         -5.8840499751        6.4831339088        0.9081815765
 H         -6.3407879915        5.7688222690       -0.3892205467
 O         -1.1000687000        6.1914447809        6.7613487746
 H         -1.7046324966        6.0802728495        6.0085874904
 H         -0.2594161601        6.4945454506        6.4013007037
 O         -5.2665748847       -2.3711977331       -7.3119759554
 H         -5.0565878474       -1.6258467688       -7.8953044209
 H         -4.3841490919       -2.6355532863       -6.9514250726
 O         -4.4292213439        2.9311535921       -1.7373148118
 H         -4.6202963423        2.0970974427       -1.2864499120
 H         -3.4827532951        3.1278042055       -1.6490242661
 O         -4.8876792141        0.3361479363       -3.0056608606
 H         -4.4724048463       -0.2808217879       -2.3894086213
 H         -4.2055519477        0.9335015749       -3.3357120266
 O         -6.9594350224        2.0870464303       -3.1567402479
 H         -7.6771239929        1.4490766206       -3.2252551245
 H         -6.1828769322        1.5383455712       -2.9178224025
 O         -1.2565193294        1.9300149903       -7.5399003145
 H         -2.2237931086        2.0461727131       -7.6050900602
 H         -1.0637671959        0.9763410433       -7.5688539668
 O          7.0245980265        1.7119650527        6.9092310187
 H          7.3286382568        1.8957824375        6.0087646093
 H          6.7292975172        0.7877340210        6.9180181544
 O         -4.8290799144        6.2287532582        2.8124827039
 H         -4.2428523193        6.2943230476        3.5805777868
 H         -4.2377822789        5.9866266394        2.0667488454
 O         -3.9148686995        2.4867042486       -7.4746334904
 H         -4.5207194887        2.0890018528       -6.8223684513
 H         -3.9262664921        3.4349831252       -7.2845465083
 O          0.1451374866        1.8748535976        8.0574918416
 H          0.9563257386        2.4274277630        8.0523201932
 H         -0.5823457189        2.5094950052        7.9305487756
 O         -3.8381582261       -2.2836754869        7.1289470823
 H         -4.7464596340       -2.3339679819        6.7709180654
 H         -3.8125929137       -1.5456329499        7.7591591421
 O         -6.3226850267       -1.7043874386        1.7232339025
 H         -6.3369248814       -1.7330891574        0.7603319925
 H         -5.7871824310       -0.9215781074        1.9716788338
 O          0.4454706470       -7.3852880404        2.7290479460
 H          1.1625585942       -7.7223959536        3.3047069999
 H          0.1678478696       -6.5660679595        3.2037668543
 O         -0.8269590445       -1.1729327250        3.4508915063
 H         -1.0545530084       -1.4759251681        4.3469110056
 H         -0.2931360426       -0.3781300965        3.5658142662
 O          2.1656301232       -4.0531167303        7.3074418563
 H          1.2264748000       -4.2512585170        7.1391179850
 H          2.1708825189       -3.2194263096        7.7994959284
 O          6.9123123161        5.7711374192        1.8112463801
 H          7.1948232067        6.6698695158        1.9738726464
 H          6.0748999724        5.6354382002        2.3238369465
 O          5.2512319484       -3.5695062379        4.0896585427
 H          6.1728595838       -3.3514288523        3.8870182685
 H          4.7939186199       -2.6852469388        4.1808945775
 O          4.6383893175        0.9932562690        2.9055963511
 H          5.0838374601        1.6270439754        2.3101193730
 H          4.3044635408        1.5322794131        3.6377494773
 O          4.5491141067        5.5805486186        6.1986907046
 H          5.0276031866        5.9500798010        5.4556245282
 H          3.6727097219        5.3307764122        5.8603184485
 O          4.9217224667        0.0687086671       -7.3732657836
 H          4.4355710203       -0.1851845218       -6.5539706076
 H          5.6238111737       -0.5720020405       -7.4827320119
 O         -6.0569556609       -6.1226071063        1.6016886978
 H         -5.6617978246       -6.8247444625        2.1326339838
 H         -5.8495673418       -5.3060456775        2.1116314998
