  384
       -651.79070634
 O          4.4739373809       -0.2308971993       -6.5608773556
 H          3.7470180630       -0.7274397014       -6.9411166707
 H          4.7300461484       -0.7166237481       -5.7534984795
 O          0.8579026093        3.1568968438        5.0589099961
 H          0.9302586932        2.2639314697        5.4288695611
 H          1.7743502293        3.4928440499        5.0935534357
 O          1.6734224281       -0.0599522862       -4.7548774918
 H          0.8591092781       -0.4654137318       -4.3938685984
 H          2.1236888897       -0.7632024691       -5.2366954200
 O         -1.1882671912        1.7818550720       -6.3769281927
 H         -2.0619719180        2.1302263551       -6.6080044180
 H         -1.1801906928        1.6827171007       -5.3912043274
 O         -4.6945945784       -0.1180719840        1.0292034764
 H         -5.0320715182       -0.8674370859        1.5595500359
 H         -3.8489581241        0.1141214617        1.4271913899
 O          1.8456993871       -1.5347173659        2.3242392536
 H          1.8613677972       -2.2044004045        1.6250764132
 H          2.2929599052       -1.8934638692        3.1159015280
 O          2.1340869202        0.8902492157        1.3140355782
 H          2.5986532978        0.8622563486        0.4681822384
 H          2.1553421454       -0.0121925350        1.6805317522
 O         -4.7032511625       -1.6435090314       -1.1064591775
 H         -4.6963316459       -0.9739617082       -0.3838434708
 H         -5.1412961896       -2.4317371439       -0.7464374857
 O         -0.3072132334        3.3906558675        0.1490939023
 H         -0.2036369008        2.9678386283        1.0215873638
 H          0.2664382006        4.1814254999        0.1916664603
 O          6.2646158856       -2.2151984115        4.7308183554
 H          5.8391861600       -3.0475531406        4.9704624431
 H          6.9013596887       -2.4340287826        4.0233057922
 O         -2.4736252518        1.2357622568        2.1850235261
 H         -1.5782638250        1.4837027873        2.4720683444
 H         -2.7341192893        1.9365911642        1.5509731886
 O         -3.3581999399       -1.4768458855        3.1337419614
 H         -3.2328953165       -2.4168182409        3.3835866542
 H         -2.4860329153       -1.0897021569        3.0184613243
 O         -0.6613795215       -0.8669107407        2.6930153365
 H          0.3033134632       -1.0149670977        2.6066462295
 H         -0.7842448654       -0.2824272736        3.4744224510
 O         -1.4918428110        4.7468541430        2.3427238520
 H         -1.7238401156        4.1239306683        3.0493593444
 H         -0.6013425329        5.0623599441        2.5612571515
 O          2.2074973776       -2.3444852112       -2.8793702773
 H          1.7108464876       -3.1630527756       -2.7311483801
 H          2.4440926365       -2.3138757200       -3.8177021870
 O          1.2712026473        1.8398002248       -2.8215881894
 H          1.9242441668        1.3776752349       -3.3632405970
 H          0.4043469220        1.6115539814       -3.2092110595
 O         -1.5549851643        3.6086754666       -2.3090783125
 H         -2.3677697662        4.0899896403       -2.0914071483
 H         -1.0325530789        3.5509331984       -1.4972876877
 O         -6.7043960794        5.5088459552        0.8248625056
 H         -5.7628093052        5.5150291056        1.0904986986
 H         -6.7122369059        5.2932016341       -0.1155904682
 O         -4.2577425429       -0.6630410829        5.4588184467
 H         -3.8984195188       -0.9760444728        4.5864635722
 H         -3.6463069452       -0.9863988807        6.1228497329
 O          6.9294100479        4.1548436980       -2.1670861674
 H          6.6893979220        3.2020115387       -2.1785826031
 H          6.4706052068        4.5236464297       -2.9300272536
 O          3.1140648994        6.9455789131        2.5476198661
 H          3.7882611060        6.2771233952        2.7614981769
 H          3.2114418546        7.1055566567        1.6032452501
 O         -4.3623670697        1.6148872494       -1.3942644016
 H         -5.1375215892        1.2998164239       -0.8841548168
 H         -3.8489051149        2.1821322673       -0.7848767856
 O          4.7891066514       -6.3168067959        0.5973127827
 H          3.9647636335       -6.0748865327        1.0522505400
 H          5.4876349423       -5.9964917486        1.1866422995
 O         -7.3364630376        3.8345611074        2.7750765405
 H         -7.1329253926        4.4782884297        2.0547679756
 H         -6.7219755066        4.0381314147        3.4872171875
 O          7.6682827882       -3.9933422883       -2.3815820844
 H          6.7936224829       -4.3538063930       -2.1522472144
 H          8.0750738380       -3.7611627357       -1.5259673840
 O          4.7098284164       -4.5374505414        4.6384122652
 H          4.3834033377       -5.4019951358        4.8856339936
 H          5.1766421560       -4.6525554578        3.7690137113
 O          3.1689339415        0.1664820857       -1.0681891620
 H          3.4527988566        0.5723299176       -1.9058462129
 H          3.6825508166       -0.6407377441       -0.9584134544
 O          5.9760388541       -4.5708406035        2.3348877438
 H          6.7900446257       -4.0621235998        2.4432265060
 H          5.3253217716       -3.9543245874        1.9195756662
 O          2.9197099828       -2.5044326132        4.5596079463
 H          3.5613300712       -3.2397500103        4.5302526929
 H          3.3395006326       -1.7793256201        5.0680101387
 O          6.1479445603        1.6137916579       -1.9713885569
 H          5.4668558189        1.3402762325       -2.6172516258
 H          5.6528109886        1.7734471424       -1.1308080903
 O         -8.3221643797       -0.3695889179        4.0094535605
 H         -8.9951329496       -0.8428051603        3.4986967316
 H         -7.8538029329        0.2062682970        3.3754617726
 O          5.9328069695        2.2838316681        3.1161391660
 H          5.4909934617        3.1481466303        3.0584812309
 H          6.7677812309        2.3802674255        2.6340770050
 O          3.2598942727        1.3113750348        3.6770717301
 H          2.9600170779        1.6459087887        2.8124049421
 H          3.8466856525        0.5556895489        3.4736654544
 O         -0.4418900191       -1.3821018551       -3.7592376048
 H         -1.1386636452       -1.1603167072       -4.4032411235
 H         -0.1598048814       -2.2865848728       -3.9644889807
 O          8.2801215359       -2.7436259678       -0.0318786130
 H          9.0465514363       -2.1321229316        0.0175275871
 H          7.5469142660       -2.1649900444       -0.3308178808
 O         -4.5192391813        0.5556917184       -5.6299548272
 H         -4.2680458835        1.4083112782       -6.0209240785
 H         -5.4622035984        0.6187242592       -5.4263798356
 O         -5.5580521328       -3.8925106426       -3.0397088357
 H         -5.8947699019       -4.0160265370       -2.1346565452
 H         -6.0025460156       -3.0909498326       -3.3566821451
 O          1.2628717749        5.5667462039        0.3161536058
 H          2.2225889131        5.6734335811        0.2588750421
 H          0.8948263984        6.0559188815       -0.4311273775
 O         -2.0434497793       -0.8085640761       -5.9404600605
 H         -1.5817507652       -0.0308263609       -6.2986133227
 H         -2.9713328732       -0.5457130599       -5.8794947463
 O         -0.9790295874       -3.4100891505        1.8452828571
 H         -1.8953032087       -3.4946992185        1.5069746919
 H         -0.9355623906       -2.5548767846        2.3057051755
 O          3.3349885272       -7.6951269667       -1.4460770243
 H          2.5192140962       -7.4640412909       -0.9739498078
 H          4.0446268371       -7.5335718603       -0.8125339973
 O        -10.2967350330        0.4487753585        0.6611794517
 H         -9.9662157516        1.2998421927        0.9832861714
 H         -9.6713096667        0.1287247771       -0.0126629646
 O         -6.8860305974        1.2080869041        2.2951638580
 H         -7.1074112474        2.1395686201        2.4783101323
 H         -6.0029818951        1.0906436666        2.7071840197
 O         -9.6043887384        3.0817564761        1.4873021457
 H         -8.8672769155        3.3090174670        2.0834443565
 H        -10.3856055733        3.5055028887        1.8432776326
 O          1.0247496870        5.4152481947        3.1862947160
 H          1.6638683605        6.1136140154        2.9185574543
 H          1.0460560300        5.3576309858        4.1424834018
 O         -2.4317653247       -5.9238119270        2.3472224767
 H         -1.8425076299       -6.4730108243        2.8663356701
 H         -1.9522898668       -5.7218623787        1.5110450873
 O          0.4251092666       -5.0679027734        3.4271013370
 H          0.4573849244       -4.5763777040        4.2618561106
 H         -0.1530124277       -4.5388917982        2.8429507880
 O         -5.4969246438       -4.6638370202        4.3547170794
 H         -5.9729726739       -3.8398989221        4.5508755884
 H         -5.6348270426       -4.8489005579        3.4144312231
 O          5.4592288399        1.5322689361        5.6016587760
 H          4.9606159597        2.2914982331        5.9241392362
 H          5.6249771453        1.7287020546        4.6477196316
 O          3.5345424521        3.5929202427        5.0522379912
 H          3.5095681485        2.7699570002        4.5165766611
 H          3.9546992085        4.2505589963        4.4905110721
 O         -4.5489612084        4.0129888892        4.0502575251
 H         -3.6827482524        4.0642052689        4.4731969187
 H         -4.6831437741        3.0430419684        3.9368552952
 O         -8.1363971301       -2.5203935051        0.6954334303
 H         -8.3085522287       -1.8855980220       -0.0140535730
 H         -8.8409934739       -2.3761327240        1.3494224752
 O         -1.2341707581        1.4808395666       -3.7586130990
 H         -1.9512192928        0.8480376036       -3.5493961307
 H         -1.4517691140        2.3114862334       -3.2740044291
 O         -3.5979787227        4.4330524967       -4.3983329766
 H         -3.4472410516        5.0580341095       -3.6774810253
 H         -4.2852511623        3.8366093938       -4.0338541253
 O          2.6096122251       -5.2159716392        1.9064995534
 H          1.8661961107       -5.1690389396        2.5495086893
 H          2.9825466809       -4.3226668171        1.8138584554
 O          1.5186821412        2.3212093779       -5.9582532567
 H          0.7711347536        2.3108550759       -6.5607657967
 H          1.5083601751        1.4424947855       -5.5265542425
 O         -1.8968747127        3.1478310018        4.6120010847
 H         -1.9060419514        2.1796833099        4.6547048204
 H         -1.0261776933        3.3935206493        4.9501797881
 O          8.5647956209        1.5209158451       -0.8837162327
 H          9.0103926218        2.1819355148       -1.4154374168
 H          7.6974150432        1.3672727326       -1.3119848542
 O          4.6432065390       -4.1461087530       -4.8935806171
 H          4.1401015924       -4.7845304465       -4.3497068957
 H          5.4718840586       -4.5719349883       -5.1149279689
 O         -2.1115796784       -3.5447129405       -5.5267586644
 H         -2.1390460212       -2.7342810852       -6.0507407970
 H         -2.5143753253       -3.2839837518       -4.6626475912
 O          7.6097813927       -1.6183543012       -3.4560161169
 H          8.4521553758       -1.4230230733       -3.8634238948
 H          7.6634659614       -2.5579749229       -3.1164138726
 O          1.0480249890       -4.7225471821       -2.1326720210
 H          1.1743885580       -5.3880195359       -1.4104917645
 H          0.1333419094       -4.8597577157       -2.4491773903
 O         -6.7582519514        1.1622992367       -0.3321035210
 H         -6.7011533482        1.0841028993        0.6533380679
 H         -7.3124920550        1.9393237340       -0.5305299307
 O         -3.0847675920       -2.7891263973       -3.1802925123
 H         -3.9675609133       -3.2013943379       -3.0887215046
 H         -3.2306596797       -1.8257289168       -3.1249548074
 O         -4.6387085995        1.3951791668        3.7180019416
 H         -3.7989434817        1.2677692035        3.2217919774
 H         -4.5928680483        0.8179257740        4.4948889839
 O         -8.4957760158       -0.5344155292       -1.2291025374
 H         -7.7621614649        0.0442028382       -0.8762755204
 H         -8.9069365873       -0.0141519839       -1.9399800962
 O         -3.3693501175       -0.0578296549       -3.2624728672
 H         -3.8801193465        0.1355621368       -4.0705015308
 H         -3.7930928721        0.4265647175       -2.5287945528
 O         -3.6591025751        2.9814879367       -6.6561078963
 H         -3.9610675960        3.4795068215       -7.4150630649
 H         -3.6085915801        3.6059392838       -5.9061707852
 O         -2.9873791492       -3.9026910794        4.1067708125
 H         -3.8977889109       -4.2003249012        4.3463266400
 H         -2.6649226699       -4.5745773624        3.4820119913
 O          1.0076864331        4.4869145676       -3.4957332917
 H          1.0557150109        3.5441932641       -3.2459529285
 H          0.3919015141        4.5231028410       -4.2584194464
 O          8.6084405130        0.0841237038        2.7408011130
 H          7.7671138469        0.2470416872        2.2715799179
 H          8.4177936374        0.1813295640        3.6963593870
 O          3.2787433748       -5.7585449842       -3.2417502920
 H          3.3204479405       -6.6213981213       -2.7666041668
 H          2.4405914323       -5.3517090644       -2.9448535258
 O          5.0297142969       -1.5107117280       -4.2018897374
 H          4.8468949286       -2.4522550632       -4.3550928048
 H          5.9818141304       -1.4574073008       -4.0049749005
 O         -4.2180652693        5.0724748955        1.6618510596
 H         -3.4914884017        5.6999535457        1.7224337373
 H         -4.3439017147        4.6987550283        2.5728627936
 O         -1.1673813671        0.3955656083        4.9458611416
 H         -0.2437679102        0.4592676591        5.2406006790
 H         -1.5049663007       -0.4322266397        5.3427434805
 O          3.9617332611        6.1016336744       -0.1121828122
 H          4.8453586156        5.7680463433        0.0753554527
 H          3.8095867008        5.9057739955       -1.0519368117
 O          4.7246368711       -0.8433576412        2.9743592517
 H          5.3693331889       -0.4043831963        2.3719808093
 H          5.2473342063       -1.2339561168        3.6999164313
 O          4.1505729020        2.3183329835       -5.6931006704
 H          4.3799360730        1.5117520465       -6.1938102173
 H          3.2049830525        2.4884126118       -5.8879282424
 O          3.4358018492        5.0185256085       -2.5441779434
 H          2.5756473107        4.9857670567       -3.0058446567
 H          4.1121244076        4.8127181186       -3.2114040524
 O         -1.7354962729       -2.1095570147        5.7786577923
 H         -0.8441476929       -2.4865990481        5.8266803738
 H         -2.2397648429       -2.7669528939        5.2687910564
 O          2.5201941962        3.5232037019        1.9505965518
 H          1.8567575791        4.1547309475        2.2883399596
 H          2.3770722192        3.4395094268        0.9946831101
 O          4.0545592820        0.9129603421       -3.4518439718
 H          4.0515609939        1.4883589622       -4.2507778532
 H          4.2441697691        0.0123282565       -3.7630128184
 O        -10.1365919628       -1.6052460630        2.3080076023
 H        -10.2936151777       -0.8135119990        1.7344539671
 H        -10.9939497475       -1.9334124802        2.5761805330
 O         -1.2305386196       -3.2541487967       -1.2472509679
 H         -1.4690089466       -2.5381908885       -0.6376061755
 H         -1.8697023660       -3.1900909329       -1.9801651887
 O         -0.0543289160        6.3569849309       -1.9370179101
 H          0.2483583631        5.5830604550       -2.4721592469
 H         -0.1882679557        7.0749986039       -2.5536529109
 O          4.9116440500        2.2952470444        0.2401945399
 H          4.0029969500        2.5069947459       -0.0634025322
 H          5.3610615143        3.1471420182        0.3919638351
 O         -3.4618908476       -3.3852478463        0.8020330526
 H         -3.2859896041       -2.5397644247        0.3612828775
 H         -4.2259202186       -3.2010634522        1.3781567887
 O         -6.1027442025       -3.9938151036       -0.3902906088
 H         -6.9351030535       -3.6419531489       -0.0437452471
 H         -5.7307858816       -4.5482197128        0.3169633578
 O          6.4554255913       -1.0730277806       -1.0715805087
 H          5.6160463503       -1.5540442453       -1.2105544922
 H          6.8832449114       -0.9921798283       -1.9385021188
 O          1.3169165956       -6.3720235570       -0.1188837104
 H          0.3645215451       -6.2993263321        0.0784493189
 H          1.7852337672       -5.9487685797        0.6340487268
 O          6.3459354499        0.2601717748        1.2395125144
 H          5.8237728935        1.0605889435        1.0494421534
 H          6.4570061973       -0.1986552172        0.3891591509
 O          5.2830716469        4.4512485922       -4.4788357487
 H          4.9456716866        3.6466060649       -4.9220155470
 H          5.4059328223        5.1043005569       -5.1679508932
 O         -5.1364991360       -5.5916865662        1.6845267206
 H         -5.4488535368       -6.4963081901        1.6687265614
 H         -4.1819318377       -5.6323238678        1.8700387424
 O          2.6238259587        3.1239741357       -0.7862595616
 H          2.9408582874        3.8446280247       -1.3638659822
 H          2.0437733688        2.5844543319       -1.3415535984
 O         -5.5208122507        2.9466409591       -3.2848638362
 H         -5.0269685559        2.4639850835       -2.5684542298
 H         -6.0727383560        2.2593332179       -3.7184739392
 O         -2.0039490114        6.1808437044        0.0419922128
 H         -1.2677644175        6.2900273061       -0.5789052548
 H         -1.6663774029        5.6491544229        0.7803536088
 O          1.0797797592       -3.0022753379        0.1619036180
 H          0.3023061039       -3.2502917753        0.7069440307
 H          1.0685603161       -3.5905115624       -0.6071328924
 O          8.1779249752        2.7257574773        1.5326269270
 H          8.8324224789        2.3290185950        2.1142875726
 H          8.2608659976        2.2396630156        0.6862513501
 O          4.1760922126       -2.4232563698       -1.1710457345
 H          4.5852338525       -3.3130644556       -1.3102346586
 H          3.4398299867       -2.3826466178       -1.8306395508
 O         -9.3553821903        1.4053811664       -2.9625560869
 H        -10.2783794120        1.5558177332       -3.1655388461
 H         -9.0959135351        2.0760602717       -2.2964374514
 O         -8.5405289468        3.0837272265       -1.0153572197
 H         -8.9784446121        3.2493516781       -0.1617795749
 H         -7.9980721753        3.8576093705       -1.2461694009
 O          0.7065799017       -3.4220748144        5.6639226425
 H          0.9721541848       -3.7925831957        6.5047130884
 H          1.5059385273       -3.0007038880        5.2651060682
 O          5.1607158128       -4.7990485212       -1.5774535840
 H          5.0850836350       -5.3680157531       -0.7793650208
 H          4.5333915237       -5.1736944255       -2.2297906970
 O          4.7044786666        4.6924418012        2.6863114028
 H          5.2793825631        4.8682047320        1.9332705652
 H          3.8915321383        4.2266962626        2.3284068251
 O          4.0486879607       -0.6600723968        6.1567845156
 H          4.7016312005       -1.1456094683        6.6617196021
 H          4.5106234401        0.1630703478        5.8655152821
 O          4.0778943938       -2.9383409830        1.4781117421
 H          4.2472182400       -2.1262184295        2.0115682073
 H          4.0626823793       -2.6811013102        0.5394499896
 O          1.5030866866        0.4867196976        5.4676841188
 H          2.0794799449        0.0547055391        6.1025035071
 H          2.1031182006        0.7343584233        4.7235134134
 O          7.9159010984       -2.5736366583        2.6116817971
 H          8.3258136699       -1.6974587360        2.7470172056
 H          8.0723642422       -2.7541285440        1.6590481772
 O          7.7981591995        0.0694924846        5.3112911367
 H          7.1323289418        0.7188393910        5.5763611113
 H          7.3441977663       -0.7835749871        5.3138727967
 O         -2.9936886574        3.0938962428        0.3608534551
 H         -3.4562463096        3.8352972256        0.8055709520
 H         -2.0554388336        3.3599413817        0.2823369241
 O         -6.4100930643       -2.1006047504        4.5971402723
 H         -7.1819059840       -1.4961591979        4.4954254361
 H         -5.7367361973       -1.5846295096        5.0741360493
 O          0.0785197259        2.1235854615        2.5606616737
 H          0.8768897828        1.7180504703        2.1808823011
 H          0.3581653923        2.5854009481        3.3687137230
 O         -6.6612057410        4.8325976411       -1.8983956290
 H         -6.8145866851        5.5721806452       -2.4862880828
 H         -6.2406857263        4.1145359102       -2.4518807360
 O         -0.9024490238        4.4766469212       -5.3586744654
 H         -1.7486626831        4.4487384207       -4.8899346272
 H         -0.8134318693        3.6339521377       -5.8233423238
 O          0.4063432672       -3.8043942919       -4.8980388263
 H          0.5096054858       -4.6863546466       -4.5364445612
 H         -0.5170345761       -3.7657689991       -5.2592349832
 O         -5.7242132028       -2.3927262394        2.0407516000
 H         -5.9013193672       -2.2847986988        3.0006655554
 H         -6.5927144145       -2.4173950623        1.6093497898
 O          6.3701347858        4.5707009279        0.3927769459
 H          6.6128199252        4.5458075633       -0.5651144945
 H          7.1349764315        4.1998080934        0.8556089801
 O          2.5878113361       -2.4711685774       -5.7171370666
 H          3.3165198065       -3.1050275692       -5.7095933859
 H          1.7679850917       -2.9918452184       -5.6347881932
 O          9.8659377027       -0.6366842327        0.3397294528
 H          9.4755315999        0.0827782568       -0.1779275798
 H          9.6798123734       -0.4152578338        1.2633584981
 O         -3.7063258327        5.2286876111       -1.7421986260
 H         -4.5830568283        5.0842097402       -1.3787864683
 H         -3.1694111894        5.6548635801       -1.0358995513
 O         -6.9276387067        0.9364191559       -4.3048897690
 H         -7.8496688866        1.1201257533       -4.0829984063
 H         -6.7137689872        0.0958189704       -3.8273044302
 O         -1.4038958911       -5.4034928154       -3.1717975721
 H         -2.1404666426       -5.3424494706       -2.5371712895
 H         -1.7829318976       -5.1781105188       -4.0244239563
 O         -3.5164714386       -5.2404904255       -1.3700225960
 H         -3.5864971040       -4.5861374844       -0.6501872645
 H         -4.2672048915       -5.0924615393       -1.9500534297
 O         -1.2345258933       -5.6131386870       -0.0080408133
 H         -1.9006006562       -6.0820621945       -0.5190607619
 H         -1.2125842530       -4.7081369582       -0.4159782496
 O         -6.4892541979       -1.2929842741       -2.9645010511
 H         -5.7290878722       -1.3009629606       -2.3213297262
 H         -7.2807705602       -1.2745166139       -2.4037408337
 O         -2.0081317350       -0.9904246247        0.0651100940
 H         -1.3591855848       -0.5795431426       -0.5450520698
 H         -1.6942031940       -0.6999202172        0.9285591433
 O          0.1358607254       -0.1423671325       -1.2571225862
 H          0.0939245762       -0.6160829255       -2.0951952490
 H          1.0517963774       -0.1904651429       -0.9680772567
 O         -2.4840707115        6.5827635354        4.2545779362
 H         -2.0752664675        6.0361102681        3.5643371267
 H         -3.3558408856        6.2214992487        4.4203225655
