  129
       -218.88826692
 O         -1.1066626735       -3.8006954018       -0.0181490906
 H         -1.0279885326       -4.0994089856       -0.9370940078
 H         -0.2682221207       -4.0981097920        0.3987647881
 O          5.3583362496       -0.7459676200       -3.0728272907
 H          5.4663878648       -0.7658712237       -4.0240209033
 H          4.9473586595        0.1239742703       -2.8553197218
 O          1.3188008292       -4.6309592380        0.7392181424
 H          1.7694777262       -4.6381704275       -0.1179876724
 H          1.8251994979       -4.0436941513        1.3203530765
 O         -6.6597092626        1.6398456466        1.1294963225
 H         -7.3801898320        2.1653155130        1.4753253297
 H         -5.8327590332        2.1672190168        1.2449108977
 O         -5.4180055644       -0.3324638854        2.6339844222
 H         -6.0100639483        0.2262039754        2.1057063039
 H         -4.5180737115       -0.0362764580        2.4111733178
 O          1.2664663879       -0.0999841400        5.0457308273
 H          0.7575442967       -0.8301289805        4.6540711726
 H          1.8800019756        0.1846251175        4.3421057513
 O         -0.7951114138        1.7136693400        2.1721176171
 H         -0.7012274015        1.8269463177        3.1415877845
 H         -0.6501740051        2.6018106583        1.7703091837
 O          0.0570704824       -1.9041863117        3.3548935897
 H         -0.8315807747       -2.2590281911        3.2211041738
 H          0.1964334881       -1.3124173701        2.5860413008
 O         -4.7912485807        1.6323095681       -3.1091996833
 H         -5.3175731489        1.4558422361       -3.8892326900
 H         -3.9150404499        1.2298865270       -3.2779711378
 O         -1.1096186345        4.3431310708       -1.4592683925
 H         -2.0676595272        4.2114323397       -1.3919111220
 H         -0.8173647373        3.7335667482       -2.1541258129
 O         -2.2828569430        1.1938387586       -0.8640064372
 H         -2.3642893937        0.6404089767       -1.6556777281
 H         -2.6043837955        0.6637088989       -0.1089190532
 O         -2.3099510895        0.6425850698       -3.5882227386
 H         -1.8821273838       -0.2138944973       -3.7243138205
 H         -1.6070517606        1.3190140576       -3.6008664346
 O         -6.1953750752        0.1243825228       -1.2024217362
 H         -6.4080417465        0.6425264098       -0.4146264175
 H         -5.6867122830        0.6998468326       -1.7949530466
 O         -2.4339341199       -1.6019797021       -1.0603480871
 H         -2.0222249768       -2.3590355585       -0.6185955905
 H         -3.3916028730       -1.8384544572       -1.1263044121
 O          1.5509912398       -1.0689166461       -4.0767928398
 H          0.6318731834       -1.3096354826       -3.8686083518
 H          2.0925566346       -1.4594845650       -3.3698935289
 O         -0.3190286935       -4.4883238432       -2.6254859546
 H         -0.5279754688       -5.3644977434       -2.9497704228
 H          0.6280322904       -4.4934918303       -2.3845644950
 O          2.4856642371       -2.7166255315        2.3660280212
 H          3.2536657525       -2.4636759799        2.9014877487
 H          1.6811589663       -2.5382056622        2.8848479683
 O         -5.0706356532       -2.8002082220        1.8032746728
 H         -5.6184266164       -3.4044707338        2.3030091245
 H         -5.2822572301       -1.8863615385        2.1320131323
 O          1.9615958853        1.5745999913       -4.0029601419
 H          1.8243459938        0.6071798534       -4.1220626009
 H          2.7433983043        1.6616368559       -3.4404786319
 O         -0.9877210783       -1.8068546607       -3.2700187529
 H         -1.5140520584       -1.6825389908       -2.4416657291
 H         -0.8279777835       -2.7586355680       -3.2976327472
 O          3.5193607228       -1.2088284682        0.3802464236
 H          2.9583318404       -1.6725939195        1.0307652027
 H          4.4205003907       -1.6004552602        0.5321887211
 O         -2.8122985112        5.0088252715        2.0878993397
 H         -3.3625953500        4.2093672271        1.9829374932
 H         -3.2017264339        5.6786574128        1.5253634080
 O          2.0062627199        2.7020632732        1.3278053866
 H          1.4323425008        2.2690353140        0.6246428332
 H          1.5327032159        3.5162849115        1.5240157783
 O          6.6366818802        2.0635644526       -0.4158152944
 H          7.1406368982        2.4495401886        0.3004235750
 H          5.7468521041        1.8681759802       -0.0600888623
 O         -2.3601609864       -2.3781845486        2.0226777737
 H         -3.2919828341       -2.6597222692        2.0126778598
 H         -1.9236912601       -2.9104986778        1.3391138816
 O          4.1058942242        1.4050114671        0.2244526489
 H          3.4221414417        1.9596996102        0.6415266754
 H          3.8610081507        0.4675851707        0.3943287124
 O          2.3214517376       -4.5352413794       -1.8891207179
 H          3.0209646387       -5.1152355596       -2.1902803481
 H          2.6600393444       -3.6101002198       -1.9896949623
 O         -3.7018569645        3.3342611145       -1.2063293517
 H         -3.1084711273        2.5378452881       -1.1196185999
 H         -4.3140287919        3.0810967421       -1.9078460958
 O         -2.9220010769        0.2530094451        1.5908850631
 H         -2.1464457254        0.7621667157        1.9165784421
 H         -2.6777265640       -0.6919862896        1.6942242225
 O         -0.4024923747        2.6309055766       -3.6029552289
 H          0.5001266286        2.2324718633       -3.7186856331
 H         -0.5422499160        3.1751310798       -4.3786386016
 O          4.3028543359        1.6290744658       -2.4013460404
 H          5.0304028855        2.2515184196       -2.4671889264
 H          4.1354986937        1.5366517490       -1.4296324113
 O          3.1968066693       -2.0680779368       -2.0909017446
 H          4.0450632135       -1.7823818195       -2.4755247027
 H          3.2260069643       -1.7355712699       -1.1607947370
 O         -4.2834239795        2.8108233105        1.3294610191
 H         -3.7664921105        2.0041424464        1.4674289684
 H         -4.1269647908        3.0719132598        0.3899913523
 O         -4.9712042845       -2.2917402563       -0.9665028964
 H         -5.0681488882       -2.5512748955       -0.0380448451
 H         -5.4906597869       -1.4724117032       -1.0757606108
 O          4.6266440501       -1.2522852158        3.4608610937
 H          4.6909228327       -1.2080645554        4.4153034803
 H          4.0693685636       -0.4949758388        3.1927951580
 O          5.8830457850       -2.1648097184        0.9144943124
 H          6.4841537907       -1.6307191288        0.3512060948
 H          5.9543425609       -1.8526596728        1.8218498150
 O          2.7379371852        0.5908553806        2.8458872561
 H          2.1796591150        0.0750960456        2.2315921403
 H          2.5899263396        1.5069289141        2.5507762724
 O         -0.4440339929        1.9179331315        4.8036915730
 H          0.1532407130        1.1579482648        5.0100794058
 H         -0.0726272840        2.6876491141        5.2334815965
 O          7.1686005510       -0.6164699244       -0.8703540356
 H          7.0836703568        0.3444524081       -0.7414800630
 H          6.6554309207       -0.8148906815       -1.6659137456
 O         -0.3929526631        4.1505470377        1.1713356963
 H         -1.1660260156        4.5733927546        1.5890560980
 H         -0.5487913683        4.2243598325        0.2086481224
 O          0.4643026675        1.6356369622       -0.6570362041
 H         -0.5094161413        1.5532602377       -0.6485811591
 H          0.6864943613        2.1198179920       -1.4536990374
 O          0.7018172495       -0.2970484083        1.3183365645
 H          0.6920254294       -0.3229183422        0.3587174215
 H          0.1469739731        0.4770585435        1.5758754713
 O          4.4330876070       -4.5638788179        0.2328242407
 H          5.0114317577       -3.8366191804        0.4941208091
 H          3.8949179409       -4.7797472319        0.9969121081
