  279
       -473.55429038
 O         -0.4481718650       -3.5516977089       -0.3101310268
 H         -0.3888327317       -3.6715465246        0.6571871023
 H         -0.4212048107       -4.4440965345       -0.7133402653
 O          0.3401579524        0.6577049230        2.8829598090
 H          0.3180933206        0.3912691599        1.8973797067
 H          0.9328427992        0.0360476068        3.3183889417
 O         -2.4952213774       -0.4346700400       -2.6020486906
 H         -3.1084330561        0.3377403785       -2.5642302325
 H         -2.4506170052       -0.7319903184       -3.5256713039
 O         -1.5114878189        2.3411135303       -3.4482062753
 H         -2.0640207816        1.8313042443       -4.0707117813
 H         -1.9702155973        3.1990551474       -3.3775835348
 O         -5.8742400601       -0.8092396248       -0.4246941969
 H         -6.7817136058       -0.6917647360       -0.0696637868
 H         -5.6555773199       -1.7354699056       -0.2311988282
 O         -5.4467059270        1.6856923641        5.4743959995
 H         -4.7064597492        1.0966765436        5.6969470463
 H         -5.7805830378        1.3286829041        4.6291933146
 O          4.7892918876        3.5446036759        2.5698365645
 H          4.2691488959        2.7198631641        2.4371095751
 H          5.6449504197        3.3772186392        2.1115859398
 O         -0.5276744794        5.2206938107       -3.7544639736
 H         -0.6823394432        5.0215915375       -2.8055658896
 H         -1.4063041671        5.3189552450       -4.1278866156
 O         -0.9018808174        4.5248049523       -1.1730852775
 H         -0.4310947913        5.0313961075       -0.4880762226
 H         -1.8566361747        4.6182381619       -0.9735050769
 O          3.2964427911        1.3890677929        2.1616865045
 H          2.9425266899        0.8305988276        2.8612130825
 H          2.5328108288        1.8025101535        1.6916817733
 O          0.4592655497        0.0544233884       -5.3538274023
 H          1.3717903835       -0.2633602841       -5.4204358988
 H          0.4821080669        1.0081286810       -5.5321204909
 O         -0.1887972767       -4.0931156906        2.3168641586
 H         -0.4490548941       -3.3475235041        2.8721779259
 H          0.7418941061       -4.3009490830        2.5596959717
 O         -8.2330315986        1.4039010043        2.0528517401
 H         -8.7469082622        1.7045636054        2.8012780991
 H         -7.3449126716        1.1420439090        2.4046539553
 O          3.9893402429        4.1258334154       -0.0275959547
 H          4.2548422425        4.1422566219        0.9059989146
 H          3.4574533975        4.9216471571       -0.2199743785
 O          2.0648406794        4.6432296104       -2.9786735146
 H          1.2670839141        4.9855283054       -3.4029918155
 H          1.7789781867        3.8204135108       -2.5303995661
 O          5.0584576156       -1.4526817536        3.1155466204
 H          5.6593993039       -0.9523152589        3.6939337816
 H          5.1357270712       -1.0267778485        2.2322976762
 O         -1.4758939313        2.8416142511        4.4105401044
 H         -2.3366417369        3.2238888363        4.6407395112
 H         -1.4589985683        2.8098453629        3.4345384174
 O          0.8947684850        2.6047488961       -1.6262752938
 H          0.0800812880        3.1328330783       -1.5258266015
 H          0.6300327756        1.7463761617       -2.0043362976
 O          1.5310078276       -2.8880641580        5.0148408827
 H          0.6172304768       -2.6816705754        4.7596657510
 H          1.8202846199       -3.6290514535        4.4610613577
 O         -4.9010539440       -3.2457631320        0.2131373014
 H         -4.0885710372       -3.0106455949       -0.2957451258
 H         -4.9568049274       -4.2032478870        0.1638543755
 O         -4.1308951629        2.5915163775        2.2630482232
 H         -3.3174261726        2.0700042876        2.3932676349
 H         -4.1303378022        3.2588530409        2.9676985315
 O          1.5459768123       -5.3843975371       -3.1419393356
 H          2.3466022454       -5.6683574762       -3.5902465974
 H          1.8633410326       -5.0330995617       -2.2798660499
 O         -2.7760088966       -2.6329854761       -1.1955947896
 H         -2.6996626901       -1.7738884163       -1.6721130967
 H         -1.9321396286       -2.7978915313       -0.7250649682
 O          4.8570030606       -4.0709711078        2.4790424197
 H          4.9361556482       -3.1082808875        2.6423021863
 H          5.4670483998       -4.5036643895        3.0762105375
 O          6.0051596033       -0.1509800205       -3.9662660361
 H          6.8481886740       -0.2674426016       -3.4901184536
 H          5.8572679588        0.8103350526       -3.9659092397
 O         -3.1106719855        1.0511757755       -5.2420736998
 H         -4.0622973795        1.1769236338       -5.1123023168
 H         -2.9847537358        0.1618133024       -5.5802553720
 O         -5.7858270767        1.1793949964       -4.4036744749
 H         -6.5632071375        1.7495983957       -4.2497882077
 H         -6.0300214463        0.2969435116       -4.0507895048
 O         -3.2418638617        0.0792148102        5.3781491722
 H         -2.4031731157        0.2225520388        5.8366909498
 H         -3.0414854581        0.3243827236        4.4424321175
 O         -1.1148559481       -6.4615042779        1.0604624419
 H         -0.8203787030       -5.6568670357        1.5155231454
 H         -0.8188668651       -6.3897462539        0.1367227372
 O          4.5184270121       -4.8708000343       -3.1935272771
 H          4.7337492454       -5.0941716199       -2.2808612585
 H          3.9322744868       -4.0855336092       -3.1586456382
 O          5.1516101693        2.3395655703        5.0598884931
 H          5.0252615733        2.9030520603        4.2761480928
 H          4.2583674453        2.0770847208        5.3743272705
 O          1.1547524290        2.9421054021        3.9849767821
 H          0.3157544254        3.2394528745        4.3644891102
 H          0.9001694384        2.1688270075        3.4258216160
 O          2.6187072434        6.2267621896       -1.0042826312
 H          2.4027592875        5.6460024003       -1.7946671311
 H          3.1989355378        6.9131110622       -1.3314081700
 O         -8.3564950113       -0.8773071412        0.5695590499
 H         -8.4927852968       -0.0688742923        1.0924592316
 H         -8.1956904528       -1.5827061144        1.2285367937
 O         -4.9543883492       -1.8633221448        2.5792928045
 H         -4.7694850321       -2.3806925022        1.7739902269
 H         -4.3761774746       -2.2194894273        3.2729963272
 O          0.4939929406        5.9660737993        0.7031029791
 H          1.1592281349        6.2727618440        0.0667066054
 H          1.0145279316        5.6569264219        1.4597323832
 O         -1.7401622425        1.7289147771       -0.6588468642
 H         -2.4693450395        1.1395799431       -0.4004500162
 H         -1.8925600112        1.9995291755       -1.5752148306
 O         -5.8616238038        0.7075403050        2.9642844715
 H         -5.5044172018       -0.1768851560        2.7711880175
 H         -5.2146383748        1.3617455329        2.6113704070
 O          0.1004564848        0.1772496490       -2.6699532585
 H          0.2380625557        0.2504535656       -3.6341659137
 H         -0.8707375222        0.1750038769       -2.5368894839
 O          6.0593436220        4.4885816261       -1.7185514632
 H          6.8368102989        4.2874768622       -1.1945268226
 H          5.2994582597        4.3708173858       -1.1111589461
 O         -2.6921242405       -4.7436274006       -2.7861401165
 H         -2.0357248135       -4.4941801330       -3.4713081040
 H         -2.7557305899       -3.9497421356       -2.2015629653
 O          6.9082495167        2.8812912229        1.1005924439
 H          6.6118781208        2.4380200019        0.2811832005
 H          7.3586560179        2.1737301078        1.5872219009
 O         -3.5666233304       -5.7607901315       -0.0060906029
 H         -3.4085601365       -5.6270313983       -0.9471854862
 H         -2.7976767804       -6.2554848159        0.3314551557
 O          4.3837173533       -0.7377283287       -1.8991179077
 H          4.0662041976        0.0898413282       -1.4876489565
 H          4.9317315034       -0.4774523546       -2.6675183651
 O         -7.9544256016        2.5000413255       -3.4508923597
 H         -7.7448910712        2.9602304747       -2.6315851287
 H         -8.4686622769        1.7276722688       -3.1829544956
 O          2.7647230663        1.7337735626       -3.6340810334
 H          2.8581527028        0.8665940021       -4.0648331827
 H          2.0474610382        2.2028165335       -4.0985111025
 O         -3.4717306996        5.0005991879       -0.5740947732
 H         -4.0739348729        4.2455385583       -0.4439914386
 H         -3.1846051760        5.2809266386        0.3204576673
 O         -3.4716355242        0.0093617661        0.4789913694
 H         -4.3767529493       -0.1553897975        0.1602727203
 H         -3.0342929337       -0.8552866279        0.5711246974
 O         -3.3096248399        4.3531520006       -3.2671043064
 H         -3.4110502995        4.8307444406       -2.4319817926
 H         -3.8314899727        3.5437059512       -3.1589067176
 O          0.4796064348       -2.4131679510       -2.5223486421
 H          0.2228669599       -2.7378515236       -1.6410327833
 H          0.3173980235       -1.4377474632       -2.5489134484
 O          3.4630093771        1.6150807792       -0.9895055267
 H          3.0027710186        1.7661972460       -1.8296656905
 H          3.7038739600        2.4903620127       -0.6516903784
 O         -6.2444668475       -1.0944721050       -3.0752990311
 H         -5.9471640366       -0.9501579980       -2.1525835612
 H         -5.6393788957       -1.7504889733       -3.4593423892
 O          6.1256890559       -2.5393424822       -0.9655371963
 H          5.4511265817       -1.8499270731       -1.1369920668
 H          6.4687072274       -2.7759436317       -1.8556432541
 O          0.6077280215        2.7470418262       -4.9431325643
 H          0.6123514902        3.6865527824       -5.1366209648
 H         -0.1556518111        2.6247385684       -4.3179206101
 O         -8.5310472285        0.1015163585       -2.0339694950
 H         -7.8610238024       -0.4038314722       -2.5203596718
 H         -8.7415100943       -0.4229005716       -1.2493729597
 O          2.2742328737       -4.7360497760        3.0529105712
 H          2.1912243992       -5.5743286227        2.5470173158
 H          3.1465692939       -4.3879056243        2.7897116172
 O         -1.8280147379       -1.5274075287       -5.0765781200
 H         -1.4376090075       -2.4119056533       -4.9965193950
 H         -1.0767328311       -0.9464024082       -5.2851135063
 O          6.5872251937       -3.1188434185       -3.5340164440
 H          6.2271354376       -2.3671162543       -4.0126199424
 H          5.9259751996       -3.8386757258       -3.5899216250
 O          2.2981457806        4.8463988930        2.4857801536
 H          3.2410711687        4.7293107927        2.6549106976
 H          1.8574538981        4.2374632432        3.1136755627
 O          5.3544812312        2.4134101414       -3.3129393289
 H          4.3859464018        2.3753806989       -3.4377323246
 H          5.5711643192        3.3022534584       -2.9761759405
 O         -5.0255343479        2.7815276726       -0.2800688709
 H         -5.9922025417        2.6350634319       -0.3282631667
 H         -4.7416113995        2.6231282399        0.6356768153
 O         -4.3073439829       -2.7366921174       -4.1102591743
 H         -3.9897174628       -3.5785748560       -3.7599877351
 H         -3.5741780633       -2.3399102836       -4.5923410963
 O         -3.4202254128       -2.4721238489        4.8277402906
 H         -3.4827504294       -1.5274620688        5.1236087352
 H         -3.8515581733       -3.0110954506        5.4887964763
 O         -0.6057034352       -5.9327329324       -1.5494942285
 H          0.1383530400       -5.9457158960       -2.1746048750
 H         -1.4008322973       -5.6812230665       -2.0635584467
 O          3.0500815735       -2.6083908969       -3.1589017989
 H          2.1052672738       -2.6577356341       -2.9098012803
 H          3.4766954971       -1.9958237988       -2.5191402727
 O          2.6421317217       -0.6920173677        4.0351009867
 H          2.2605780085       -1.4765868672        4.4938369711
 H          3.5361757997       -0.9871530201        3.7539430830
 O         -1.1945242712        2.9172039318        1.6711249090
 H         -1.5372928506        2.5503003473        0.8309922342
 H         -0.2255309015        2.8812865006        1.5388858129
 O         -2.4143534930        0.6009155183        2.9130809511
 H         -1.4418285917        0.6645567256        2.8697359461
 H         -2.7349161558        0.2798524725        2.0516457672
 O         -4.0373376779        1.7105406797       -2.4830894716
 H         -4.4317616085        2.0011343605       -1.6375053136
 H         -4.7575990070        1.5516312017       -3.1268414198
 O         -0.5469658319        0.5005288602        5.5197184567
 H          0.3258726097        0.6642868934        5.8862475534
 H         -0.8229647858        1.3331926458        5.0801432978
 O          2.6573511932        1.4721861817        5.6735500905
 H          2.1476895762        2.1020206426        5.1268143181
 H          2.6819348587        0.6373466245        5.1687761607
 O          5.0069634718       -0.1884560625        0.7957339982
 H          5.5437454306        0.2867936402        0.1370284568
 H          4.3709173662        0.4719227225        1.1287968137
 O          8.1941657737       -1.2053114989        0.0750154893
 H          7.4149193936       -1.7679805292       -0.1199687679
 H          7.9246157335       -0.5806464038        0.7624636344
 O          2.3871070868       -4.7032232805       -0.6790051107
 H          3.3484780261       -4.9102500493       -0.5984440414
 H          2.3690199071       -3.7817892186       -0.3799925156
 O         -7.6291181259        2.2492336947       -0.5312759428
 H         -7.8965978945        1.4653753180       -1.0477974620
 H         -7.9449065053        2.0917504275        0.3694730706
 O          6.5805976797        0.2471651396        4.5850346395
 H          6.0145610617        1.0669421107        4.7418158630
 H          6.9941877717        0.0588144498        5.4269311643
 O          3.1456685165       -0.6467602615       -4.9574196091
 H          3.0779391151       -1.4357788926       -4.3672140156
 H          4.0855480666       -0.5274535599       -5.1176435110
 O         -2.1527700107        5.4404776179        1.7257396534
 H         -1.3742896364        5.9512076921        1.4789683131
 H         -1.8370760423        4.5135278136        1.7755211265
 O          1.3898991864        2.7506749923        0.9638224323
 H          1.3199674118        2.6470160517       -0.0141735201
 H          1.7710979659        3.6234920302        1.1462847055
 O         -0.6497928068       -3.9255888589       -4.3238818468
 H          0.0050187589       -4.6167221029       -4.4616931727
 H         -0.2196531061       -3.3398581854       -3.6486139853
 O          8.2680539164       -0.2232414207       -2.3698800983
 H          9.0513527885       -0.5136691573       -2.8351523049
 H          8.3091570456       -0.6481163435       -1.4722484607
 O         -0.8708561000       -1.8812232424        4.0561810984
 H         -0.7302847825       -1.0092008115        4.4744868082
 H         -1.7300026298       -2.1997228939        4.3840806439
 O         -3.1867575659       -4.2743567466        2.3075151229
 H         -2.5300697288       -4.7824979624        2.7862165923
 H         -3.4115146999       -4.7890592441        1.5147900422
 O         -2.0040372684       -2.0006091307        1.4772723603
 H         -2.4893983240       -2.8094141501        1.7305463180
 H         -1.6107928428       -1.6720971282        2.2967661766
 O          4.9794441365       -4.8409315359       -0.2538802138
 H          4.9151039412       -4.7718702315        0.7089202408
 H          5.4055498456       -3.9912397258       -0.5107043693
 O         -7.5287014271       -2.6722183700        2.4107381364
 H         -7.4164023518       -3.5655455526        2.0845455287
 H         -6.6262576000       -2.3278785467        2.5817843056
 O          1.8106323537       -6.6163060747        1.2356951650
 H          0.8966760626       -6.9192794948        1.2050651679
 H          1.9440897195       -6.0121205593        0.4795907243
 O         -4.0514779166        3.7757671818        4.7037143052
 H         -4.6191915558        3.0419054390        5.0642583248
 H         -4.3787493838        4.5970313390        5.0665141999
 O          6.3555174494        1.3440995131       -1.0463024251
 H          5.8540978565        1.7271568888       -1.7983581818
 H          7.1421288868        0.9469755460       -1.4370807700
 O          7.9510794517        0.6053475272        2.2795835071
 H          7.4389956163        0.4624339335        3.1013432363
 H          8.8777683389        0.5807096184        2.5180359903
 O          0.4577719011        0.1357008324        0.2557171621
 H          1.2219759627        0.5291546986       -0.1782517324
 H         -0.3214692449        0.5661528216       -0.1396539281
 O          2.6300901634       -2.0687550185        0.2609803744
 H          1.8625062152       -1.4951018072        0.3362804582
 H          3.4197663503       -1.5184966100        0.3387543002
 O        -10.6844052231        1.2641069271        0.3498919212
 H        -10.4641661899        0.3307691669        0.3954547150
 H        -10.2827879000        1.6071356888       -0.4513388024
