  86
       -142.08583928
 H         -2.7265029154       -0.2844399085       -0.2658919644
 C         -2.6086071319        0.6240104196        0.3263008815
 H         -3.0250176548        0.4550813638        1.3268304123
 C         -3.3653457855        1.7793346073       -0.3322971898
 H         -3.2198249073        2.6839519360        0.2645846560
 H         -4.4288006760        1.5303840417       -0.3293352964
 N         -2.9624192820        2.0723379915       -1.7026131230
 H         -1.9585490410        2.2340109387       -1.7427204483
 H         -3.1494046406        1.2679948218       -2.2949722750
 O         -1.2153446058        0.8589640859        0.4109212064
 H         -1.0737668359        1.7768177801        0.7592205813
 O         -3.7222723395        4.6434301689       -1.9192688143
 H         -4.6799929181        4.6612452946       -1.9216395262
 H         -3.4602365820        3.6881526846       -1.9819542192
 O          1.3263178769        3.6919525832       -0.5545492619
 H          0.9762583340        3.0234162432       -1.1780623118
 H          2.0875386589        3.2983015285       -0.1120746275
 O          5.2872238809       -0.6453283458       -0.4724224814
 H          4.7444343056       -0.0672718060       -1.0356035817
 H          5.4006090339       -0.1561167466        0.3577093138
 O          3.3464470942        1.0577770266       -1.4519150492
 H          2.7134505908        0.7265076657       -0.7731838308
 H          3.5384982780        1.9670940335       -1.2160529816
 O         -0.0554552434       -3.7836215991       -1.1692016518
 H         -0.9687680508       -4.0750197967       -1.0331988607
 H          0.3796954243       -3.8684585187       -0.2832979470
 O         -0.5421890397       -1.4853538351        1.8062180016
 H         -0.7330353792       -0.6939011912        1.2743896627
 H         -1.3843715539       -1.9589976568        1.8918394579
 O         -2.5479995970        5.1976868646        0.4473046446
 H         -2.1280389535        6.0550553924        0.3643879428
 H         -2.9691780295        5.0217466692       -0.4242465423
 O          2.4243698950       -2.9636991714       -2.2603749613
 H          2.8114028660       -2.8136135412       -1.3794050131
 H          1.6092816342       -3.4573239391       -2.1059237691
 O          3.2483599452       -2.1669573310        0.2950811980
 H          2.6440892287       -1.3943373189        0.3042768891
 H          4.1083835940       -1.7956738845       -0.0122224486
 O          1.2493687508        1.7866063261        2.2934396276
 H          2.0442727384        2.2417961467        1.9711429208
 H          0.5033679393        2.3830650189        2.1251363432
 O          1.0722292305       -3.6487369605        1.2065021307
 H          1.9649063548       -3.3350673008        1.0077231842
 H          0.5742145489       -2.8697761417        1.5119174430
 O         -2.9640137638       -2.8279613281        1.9485109521
 H         -3.2122347520       -3.0748808843        2.8400084864
 H         -3.6998231390       -2.2732507661        1.5827302725
 O         -2.6321730101       -4.3353435925       -0.3070226852
 H         -2.8455652348       -5.2453481241       -0.0986655409
 H         -2.6493107705       -3.8375985848        0.5344891465
 O          1.3057557733       -0.6100414556        3.6714888147
 H          0.6288926359       -1.0340624289        3.1192983007
 H          1.2902605933        0.3224089350        3.4118990938
 O          1.7615011554       -0.5125520816       -3.1102269144
 H          2.1132963885       -1.4251362271       -3.0102845484
 H          2.4548270788        0.0595832572       -2.7476924410
 O         -4.9492268192       -1.5163677092        0.8058184352
 H         -4.7268903278       -1.7620359646       -0.1323170645
 H         -5.8647466203       -1.7681052910        0.9314104597
 O          3.5305706164        2.7384336606        1.0290688939
 H          3.9761400688        3.5242186390        1.3472715120
 H          4.0785772321        1.9701171916        1.3167233189
 O         -0.1819894158       -1.1478233782       -1.3928780016
 H          0.4952884896       -0.9490107157       -2.0791291544
 H         -0.1560056531       -2.1290396133       -1.2862566726
 O         -4.2290828365       -2.3900725809       -1.5664825369
 H         -3.6514603204       -1.7752972977       -2.0603055099
 H         -3.6660454450       -3.1373308664       -1.3125811668
 O          0.1319335964        1.7051056128       -1.9379724100
 H         -0.2699860792        1.1514840935       -1.2464889998
 H          0.5972501592        1.1146897257       -2.5394735567
 O         -2.4144529962       -0.7757139621       -2.7992436666
 H         -1.6039481556       -0.8691100646       -2.2402442734
 H         -2.1477940910       -0.9859349236       -3.6947695195
 O          3.7734656188       -1.2960414073        2.8843766063
 H          2.8884013139       -1.0904267870        3.2631513337
 H          3.6119264176       -1.8361341810        2.0925540086
 O          1.6323642035       -0.0179544419        0.2899364111
 H          1.3649531367        0.5320000928        1.0509743835
 H          0.8255648088       -0.3588671626       -0.1429634740
 O          5.0393199414        0.7376224873        1.9379673459
 H          5.7620744952        0.8869614876        2.5472086109
 H          4.5114086489       -0.0290363109        2.3318913067
 O         -0.6704852305        3.3682155070        1.1767662490
 H          0.0231846348        3.6181256873        0.5210823999
 H         -1.3940790705        4.0083299329        1.0332410675
