  87
       -147.58634457
 O          3.6983469010        1.3062014226       -2.5698838011
 H          3.6404467353        2.0094625408       -1.9020913328
 H          2.7829377774        0.9683746952       -2.6712056455
 O         -0.1886049104       -4.9107202566       -0.9997158212
 H         -1.0463911609       -4.7197240921       -0.5853070455
 H         -0.1711420332       -4.3974272695       -1.8331094237
 O         -2.2134443758       -1.2045709337        3.6176193779
 H         -1.9362087824       -1.9077041658        2.9846823558
 H         -2.3213719114       -1.6338272675        4.4663903199
 O          3.4770232136       -0.4915279160        0.8489975629
 H          3.8090259285       -1.1559230952        1.4539072331
 H          3.9405700588       -0.6214017667       -0.0048608609
 O         -1.4790455195        3.1645071908        2.4930458953
 H         -0.5422416689        2.9190145930        2.6258236134
 H         -1.9270592285        2.3419530758        2.1594437651
 O         -3.0413027360       -3.6910732634       -2.6866288368
 H         -2.8840830741       -2.7640003389       -2.9330181436
 H         -2.3033876528       -4.1756816143       -3.0701029791
 O         -1.9432396103        4.6426743500        0.2978051257
 H         -1.6651000520        4.1855831427        1.1216758444
 H         -2.9131670357        4.7045843378        0.3769219808
 O          0.8694777682        1.8061033201       -0.2636829968
 H          1.6726516115        2.3350389037       -0.4295312988
 H          0.1333872617        2.2903242580       -0.6924801783
 O          2.3663883676       -2.3287692029       -2.0545967794
 H          2.2661784160       -2.8845903724       -1.2663234305
 H          3.2614300689       -1.9582029894       -2.0108909757
 O          0.8426833430       -1.3279277973        0.7069947737
 H          1.1948127578       -2.2258690095        0.5637035804
 H          1.6218239935       -0.7520204894        0.6513609976
 O         -2.0346371759       -1.3667479072       -3.7313517760
 H         -2.2442079476       -1.3834820427       -4.6662545577
 H         -1.7341867705       -0.4380015521       -3.5492333638
 O         -2.7296293604       -4.2208638328       -0.1152815360
 H         -2.9337816894       -3.9320551307       -1.0393047004
 H         -3.3716536893       -4.8960464485        0.1048635618
 O         -4.5824392801        4.7683578019        1.0133396890
 H         -4.3372551432        4.5955649651        1.9477153298
 H         -4.9411350935        5.6563948680        0.9959423028
 O          1.2761890896        0.1507565153       -2.3215426379
 H          1.5324652377       -0.7784334528       -2.1758801932
 H          1.0900429332        0.5447415420       -1.4429227625
 O         -3.6720035411        4.3159930591        3.5309349042
 H         -4.0367482373        3.6176325966        4.0758801957
 H         -2.7856702651        4.0032266296        3.2547285138
 O          1.0021687740        2.1065027076        2.4307868655
 H          0.8690296196        1.9390848764        1.4749234391
 H          0.8324866552        1.2422829218        2.8690457825
 O         -1.2438845081       -2.9349567510        1.8409498103
 H         -1.8024546076       -3.3800360109        1.1864855864
 H         -0.6503820176       -2.3569033500        1.3435560703
 O         -1.0202473785        3.1806850614       -1.6190372572
 H         -0.6308910245        3.8115459457       -2.2265534585
 H         -1.4409960395        3.7341915265       -0.8950286391
 O         -0.0775474452       -3.2778822710       -3.1687659968
 H          0.8082858476       -2.9236764982       -3.0160307728
 H         -0.6582002379       -2.5127441747       -3.3244344541
 O         -1.0312204276        1.0232606853       -3.4159361885
 H         -0.1388316422        0.7280585542       -3.1474085280
 H         -1.2725909308        1.7092863875       -2.7780879470
 O          0.4236260267       -0.3530724572        3.2822528511
 H          0.5522309507       -0.7866766820        2.4209880171
 H         -0.5131044877       -0.4860631208        3.5007920375
 O          3.6387497065        2.1063543374        1.8001191023
 H          3.6547275323        1.1685412063        1.5454414827
 H          2.7585028816        2.2339718802        2.2130874753
 O          4.6739793629       -0.8578958896       -1.5358560822
 H          4.3518214693       -0.0105880779       -1.9729050461
 H          5.6097806762       -0.9155411275       -1.7272308946
 O          1.8268405564       -3.8209896582        0.2320069465
 H          2.1509139917       -4.4224978993        0.9018773016
 H          1.0554830359       -4.2858678096       -0.2040039020
 O          3.2276330282        3.1493455926       -0.5453048740
 H          3.4891332739        2.7950985746        0.3556262796
 H          3.3532038589        4.0972191597       -0.5081162744
 O         -1.4360180034        0.5244633698        0.8789218798
 H         -2.0379298576        0.3590080521        0.1421233597
 H         -0.6271311253        0.0450574284        0.6786295802
 O         -3.1454465434        0.1285661896       -1.3128649233
 H         -3.2619731501        0.9981791948       -1.7013501189
 H         -2.9483783910       -0.4835608377       -2.0280336175
 O          2.6894744473       -2.1370016977        3.1402362084
 H          2.1797590971       -1.3678798153        3.4295173916
 H          2.1137004763       -2.8908378181        3.2787098170
 O         -3.5481303095        1.1565481860        2.6199799673
 H         -3.7146695689        0.9778323091        1.6925117040
 H         -3.0675136201        0.3847437363        2.9493929421
  87
       -147.59349749
 O          5.5213253491        1.8927592812       -1.1606478222
 H          5.7886505901        1.1251010057       -0.6238545839
 H          5.1335578477        2.5287985168       -0.5267245069
 O         -0.8443177884       -3.6391224278        0.4654717142
 H         -1.0985786646       -4.4938952437        0.1133218114
 H         -1.1049550117       -2.9689307817       -0.2190095132
 O         -2.8862706190       -1.2642368452        3.8919196076
 H         -2.9152243475       -1.5831571726        4.7935718348
 H         -2.8717153984       -2.0679104330        3.3063213796
 O          4.1578964810       -2.2944925018       -0.6208127361
 H          4.6552229074       -3.1137146632       -0.6473451147
 H          3.9788578354       -2.0519213064       -1.5549129245
 O         -3.6026021578        1.3034403122        0.9590355910
 H         -4.0864351422        1.8845557607        0.3463512068
 H         -4.2545239368        0.8566501875        1.5477244935
 O         -3.8430478864       -0.5748823818       -1.0046696973
 H         -3.0391494445       -1.0315900209       -1.2929267539
 H         -3.5665138861        0.0657878314       -0.3130666928
 O         -0.5919285422        4.0288374239        0.9516639910
 H         -0.7722976557        4.9546401306        1.1103974485
 H         -1.1134514263        3.5191007763        1.6513441257
 O          0.9465316377        2.3220585864       -2.2851970625
 H          1.3084495116        2.6093088007       -1.4232451444
 H          0.9248370632        1.3546404067       -2.1993031761
 O          1.0775046881       -2.4119694835       -2.6797397505
 H          1.8793056277       -2.3280554164       -3.2087451786
 H          1.3026183230       -3.0461572487       -1.9576352631
 O          5.7726592879       -0.3240753601        0.4473752486
 H          5.4014533772       -0.0823185451        1.2990806297
 H          5.1963660067       -1.0182813719        0.0779829304
 O         -0.8045502685        0.2988840649        0.1115513906
 H          0.1289474913        0.3180485266       -0.1589003869
 H         -1.2126049311        1.1085807862       -0.2713219159
 O         -4.9537345777       -2.3107686693        0.6235095939
 H         -5.7521960272       -2.6677539947        0.2359310352
 H         -4.5706304702       -1.6788225991       -0.0443535340
 O         -4.2751064389        2.4130971167       -1.4189556298
 H         -3.3176283783        2.5704646658       -1.4772364867
 H         -4.4172604047        1.5347744257       -1.7855416086
 O          1.4594149691       -0.1630251110       -1.2545288175
 H          1.3148212875       -0.9716295296       -1.7845855056
 H          2.3532890498        0.1502915405       -1.4672857878
 O         -5.0813124217       -0.2537430684        2.5205616358
 H         -5.1720343727       -1.0220337873        1.9331480549
 H         -4.3699849760       -0.4912974724        3.1387631725
 O         -1.9955166496        2.6844041292        2.6310143765
 H         -1.4738532508        1.9081743893        2.9219883971
 H         -2.6668877209        2.2846362649        2.0380796765
 O         -2.9397046531       -3.3116232009        2.2522767455
 H         -2.1348718967       -3.3770978356        1.7088585923
 H         -3.6601548263       -3.0562027585        1.6523166555
 O          1.6908989245        2.6757613809        0.3028700430
 H          1.7421183111        1.8832663303        0.8980237407
 H          0.9375023366        3.2033582995        0.6220555938
 O         -1.3872881472       -1.8111240221       -1.3587235393
 H         -0.7000919338       -1.9308630362       -2.0264083019
 H         -1.1294739470       -1.0215665910       -0.8149977977
 O         -1.5082843750        2.5612615515       -1.1635520108
 H         -0.7412595456        2.5794426617       -1.7712451210
 H         -1.2847132320        3.1909647953       -0.4530427224
 O         -0.8400032159        0.2766722917        2.8761974832
 H         -0.9367224560        0.1872432024        1.9100874297
 H         -1.5549822233       -0.2524535241        3.2681413361
 O          4.2139126778        3.5441317211        0.5602076459
 H          4.2243173009        4.4750184561        0.3365141626
 H          3.2806757488        3.2454801272        0.4727354530
 O          3.7595235567       -1.5987816866       -3.2252507431
 H          4.5097669239       -1.7069879232       -3.8107547278
 H          3.6674400654       -0.6288334053       -3.0822473451
 O          1.7442092530       -3.7552874569       -0.4831646120
 H          0.9541316714       -3.6660273768        0.0781455086
 H          2.4105356903       -3.1331543089       -0.1603421271
 O          3.5527129228        0.9615800011       -2.5686327482
 H          3.0016387943        1.6993596225       -2.8505591167
 H          4.3331639070        1.3473206927       -2.0776355474
 O          1.7865601537        0.5633841723        1.9375958814
 H          1.0812822388        0.7200873961        2.5779855913
 H          1.6357381652       -0.3374842889        1.6060562963
 O          0.7826326378       -1.9668662356        2.1155840794
 H          0.2344731874       -1.4475293130        2.7172264066
 H          0.1924787207       -2.5914657586        1.6814712925
 O         -1.7415020155        0.3425742972       -3.0852758888
 H         -1.8854851311        1.0742417941       -2.4784374353
 H         -2.0683345640        0.6156029023       -3.9411006556
 O          4.3152787112       -0.1945500739        2.7865262843
 H          3.5082143148        0.2661625594        2.5059742566
 H          4.0733837639       -1.1151303370        2.9037918497
  87
       -147.58311006
 O          3.3482266717        2.7557440240       -0.8192387237
 H          2.5249047642        3.2448779230       -1.0092036413
 H          3.2829806215        2.4850042979        0.1053426524
 O         -2.1628715083       -3.9423180018        0.1452117980
 H         -1.1783229090       -4.0836911631        0.1451341680
 H         -2.5516731201       -4.8179460279        0.1338676707
 O         -0.5131417825       -1.0851718721        3.1432454082
 H         -1.4151095495       -1.3291865841        2.8902973491
 H          0.0339772573       -1.8652542079        2.9455821108
 O          3.8335307414       -1.7095118076       -1.2287161802
 H          3.7200371843       -0.9050769245       -1.7656420801
 H          3.9744703984       -1.3863943212       -0.3264948610
 O          1.3021858574        0.8358088002        3.9931182172
 H          0.7838609655        1.6510208462        3.8903602146
 H          0.6418957515        0.1346442349        3.8710533921
 O         -2.9836359894        1.1341832663       -3.2523244574
 H         -2.1653626030        1.6685776024       -3.1157768484
 H         -3.5131451321        1.6289825927       -3.8790089319
 O         -2.8217549175        2.4266623050        2.4714402071
 H         -3.1334776293        3.0553858994        1.8192770434
 H         -3.2987717447        1.5884581163        2.2658047075
 O          1.0645443824        0.7956445751       -3.7999231621
 H          0.8286073928       -0.1396513283       -3.9570741341
 H          1.9149447046        0.7693983919       -3.3352557156
 O          1.8264172538       -3.3210653406       -1.9147215246
 H          2.5458070144       -2.7121779482       -1.6138252837
 H          2.2622967780       -3.9926378581       -2.4418276318
 O          3.0588927630       -1.3919594857        3.3542863854
 H          3.5785263133       -1.0937783455        2.5871730123
 H          2.5703819823       -0.6212667678        3.6756375660
 O         -2.3885098770       -1.4668098953       -3.8788235358
 H         -2.5519242372       -0.5290301574       -3.6399688363
 H         -2.6566467940       -1.5681081214       -4.7927470051
 O         -3.8214623285       -2.5559540341       -1.7142358957
 H         -3.3138313202       -2.3381355099       -2.5114606256
 H         -3.2009988419       -2.9801595359       -1.1040286714
 O         -4.1592556374        0.2534075330        1.6570862038
 H         -4.3961820003        0.2500638102        0.7078865973
 H         -3.7279419384       -0.5984332858        1.8187687947
 O          0.4154200809       -1.8477612864       -3.9421918873
 H         -0.5443347781       -1.8350289274       -3.8038238601
 H          0.8065946387       -2.3382535921       -3.2036481149
 O         -4.5982517363        0.0154497984       -1.0409747940
 H         -4.0681824925        0.4783260591       -1.7023183920
 H         -4.4702326533       -0.9338903029       -1.2251592228
 O         -0.4193866641        2.9983643741        3.4992434597
 H         -1.2676548558        2.6892501026        3.1055719922
 H         -0.6631823636        3.4582286116        4.3037563973
 O         -2.8754251132       -2.2240322345        2.1291051113
 H         -3.5303551075       -2.7103381440        2.6310385538
 H         -2.6278143643       -2.7895989545        1.3671205105
 O          0.9877352441        4.1687125188       -1.0117239837
 H          1.0039337082        4.2244321863       -0.0274175995
 H          1.1112815847        5.0629289446       -1.3328409615
 O          0.4359800687       -4.4059279227        0.2528845983
 H          0.7703477994       -3.9376171146        1.0348973134
 H          0.9253210253       -4.0447167041       -0.5070969276
 O         -0.7693556235        2.6330968213       -3.0804899325
 H         -0.3437906620        3.1218650425       -2.3679830826
 H         -0.0912818814        2.0052496756       -3.4110811870
 O          4.3482707213       -0.3047196509        1.1787657793
 H          5.2728408383       -0.0559925148        1.1953292339
 H          3.8257809127        0.5243966877        1.3206538387
 O          2.7988892479        1.7637940953        1.7873096551
 H          2.6855515420        1.6387796810        2.7389148683
 H          1.9442248391        1.2879797331        1.4053100861
 O          3.5219568132        0.7216985906       -2.4805936562
 H          4.1863440757        0.9628435763       -3.1267850215
 H          3.4726207997        1.4763636270       -1.8386118564
 O          1.2463862661       -3.1594783176        2.6303763081
 H          1.2794410242       -3.8559093010        3.2872841119
 H          1.9887552455       -2.5402871803        2.8569778339
 O          1.3454565144        4.1498858124        1.6548075547
 H          0.6575683212        3.8930983301        2.2894424753
 H          2.0082096787        3.4402164488        1.7151388994
 O          0.6531165540        0.4190564091        1.1532085227
 H          0.2262247896       -0.0161574895        1.9166738303
 H          0.4928956176       -0.1775554918        0.3929507596
 O         -0.9061800528        1.9192158373       -0.4339060130
 H         -0.6048283729        1.5371222664        0.4039620316
 H         -0.2664143257        2.6033904492       -0.6496132155
 O         -0.4088766794       -0.8676967866       -0.9208471106
 H         -0.9525612301       -0.0794213385       -1.0544622854
 H         -0.0204898607       -1.0897461209       -1.7697770574
 O         -3.3601652122        3.1893602513       -0.5207753590
 H         -2.5030880092        2.7366068918       -0.5949395469
 H         -4.0186242462        2.5330333230       -0.7572489705
  87
       -147.58638482
 O          4.1052605660       -1.2608505499       -1.2638336618
 H          4.9162972222       -1.4647845529       -1.7309788573
 H          4.3518757188       -0.6676874776       -0.5196527463
 O         -0.0633029763       -4.6884762606        1.6728124570
 H         -0.9904340213       -4.4656936825        1.4765545627
 H          0.3591320837       -4.7600929412        0.8023376597
 O         -2.3387164033        1.3977672684        2.8026078787
 H         -3.0716774207        0.9724769469        2.3270335058
 H         -1.7447837085        0.6800281396        3.0608671164
 O          1.2205547486       -2.5000418713        2.5179453154
 H          1.7627240992       -2.4709347954        1.7097865279
 H          0.7195766191       -3.3391861430        2.4061596802
 O         -4.3901370551        0.1160360490        1.3957882861
 H         -4.4207217899        0.1294209801        0.4035500041
 H         -5.2773141987        0.3251891081        1.6896668640
 O         -2.8208092268       -1.4136221826       -2.7337158109
 H         -3.3472869701       -1.7972061291       -3.4370396340
 H         -2.3956336965       -0.6101403127       -3.1292193272
 O         -1.7831873737        3.9406603184       -0.6308758316
 H         -2.2647396197        4.2191560805        0.1653659449
 H         -1.2063583937        3.1970789000       -0.2848875027
 O          0.4633676827        4.3538788155       -2.2300453397
 H         -0.3572782149        4.3886392278       -1.7150903793
 H          0.4617508013        3.4897852099       -2.6766036733
 O          0.8464805452       -4.5566851954       -0.9943534580
 H          0.9714561364       -5.3410448729       -1.5287750469
 H         -0.0070235632       -4.1564112586       -1.2964978142
 O          4.4058563028       -3.6387619643        2.3809530738
 H          3.8894107179       -3.5484667548        1.5558017545
 H          3.8890093500       -4.2126583236        2.9494794814
 O         -1.9671827423        0.8557940431       -3.7888656854
 H         -1.0446243181        1.1571918582       -3.7110896600
 H         -2.5029802326        1.5220936285       -3.3238717198
 O         -2.6202106475       -3.9943495034        0.8836690022
 H         -3.2970895317       -4.6532621636        1.0395140052
 H         -2.8312449933       -3.2354748175        1.4913509364
 O         -4.5090563026        0.2331396118       -1.2423590216
 H         -4.1988979597        1.0947355713       -1.5687533188
 H         -3.9395173638       -0.4272592514       -1.6757494178
 O          0.5809365600        1.9031888644       -3.5824158318
 H          1.3789703256        1.4058106566       -3.2669261182
 H          0.8031487963        2.1932369595       -4.4687561147
 O         -3.1744741785       -2.0607734048        2.5590196105
 H         -2.3363741162       -1.6923813335        2.8898681300
 H         -3.6390301644       -1.3256242257        2.1210169420
 O         -2.7686892183        4.0188302735        1.9345233546
 H         -2.6202079686        3.1050030083        2.2316285187
 H         -2.3615451344        4.5799070163        2.5954054510
 O         -0.7695302258       -0.9582242962        3.4242433340
 H         -0.0295355265       -1.4736857266        3.0204215691
 H         -0.6770146818       -1.0717014648        4.3713197668
 O          2.5042392709        4.3841052232       -0.4978997782
 H          2.9467427394        5.2182693589       -0.6580651711
 H          1.7421550612        4.3628577370       -1.1250858233
 O         -1.5679820226       -3.7135708651       -1.6688736982
 H         -2.0025625305       -3.7877645310       -0.8020280676
 H         -1.8730302933       -2.8748654373       -2.0488334428
 O         -3.4298699394        2.6338952439       -2.2278115727
 H         -4.0037393797        3.2939414041       -2.6172244744
 H         -2.8096415664        3.1273432023       -1.6234860472
 O          3.7508493806       -1.0745071557        2.9821861306
 H          4.1626782055       -1.9547560329        2.8563941290
 H          2.8054288256       -1.2563753162        3.0268896230
 O          4.6856306416        0.2601179615        0.8938032912
 H          5.5963150163        0.4231963273        1.1436782322
 H          4.2685231943       -0.1813736041        1.6787357995
 O          2.8259981116        0.7397836819       -2.8493940373
 H          2.9888298897       -0.1078563777       -2.4159367557
 H          3.3290219383        1.3900359863       -2.3073169377
 O          2.7834041502       -3.0794964905        0.2895350220
 H          2.1810153124       -3.6349027091       -0.2309446697
 H          3.1987041884       -2.4553156823       -0.3317218123
 O          4.1304276626        2.2908966914       -1.1006468733
 H          3.5532734409        3.0410452624       -0.8512511962
 H          4.2102238040        1.7378065372       -0.3136651248
 O         -0.6995691906        1.8076227607        0.5892542259
 H         -1.2738337303        1.6489053226        1.3628080416
 H         -0.6023828931        0.9616117265        0.1201412212
 O          0.5826347756        4.0097833207        1.7162948860
 H          1.3246732896        4.2422968260        1.1460434110
 H          0.1702029600        3.2422176617        1.2939116900
 O         -0.4872481141       -0.4442034902       -0.9625043202
 H          0.0816684440       -0.2208568370       -1.7026323151
 H         -1.2758177363       -0.8631972536       -1.3177564668
 O          0.3141502376        2.2973543582        3.9760240537
 H          0.6128775929        1.5298188436        3.4846969867
 H          0.3990388709        3.0480744718        3.3700995811
