  87
       -147.59349749
 O          5.5213253491        1.8927592812       -1.1606478222
 H          5.7886505901        1.1251010057       -0.6238545839
 H          5.1335578477        2.5287985168       -0.5267245069
 O         -0.8443177884       -3.6391224278        0.4654717142
 H         -1.0985786646       -4.4938952437        0.1133218114
 H         -1.1049550117       -2.9689307817       -0.2190095132
 O         -2.8862706190       -1.2642368452        3.8919196076
 H         -2.9152243475       -1.5831571726        4.7935718348
 H         -2.8717153984       -2.0679104330        3.3063213796
 O          4.1578964810       -2.2944925018       -0.6208127361
 H          4.6552229074       -3.1137146632       -0.6473451147
 H          3.9788578354       -2.0519213064       -1.5549129245
 O         -3.6026021578        1.3034403122        0.9590355910
 H         -4.0864351422        1.8845557607        0.3463512068
 H         -4.2545239368        0.8566501875        1.5477244935
 O         -3.8430478864       -0.5748823818       -1.0046696973
 H         -3.0391494445       -1.0315900209       -1.2929267539
 H         -3.5665138861        0.0657878314       -0.3130666928
 O         -0.5919285422        4.0288374239        0.9516639910
 H         -0.7722976557        4.9546401306        1.1103974485
 H         -1.1134514263        3.5191007763        1.6513441257
 O          0.9465316377        2.3220585864       -2.2851970625
 H          1.3084495116        2.6093088007       -1.4232451444
 H          0.9248370632        1.3546404067       -2.1993031761
 O          1.0775046881       -2.4119694835       -2.6797397505
 H          1.8793056277       -2.3280554164       -3.2087451786
 H          1.3026183230       -3.0461572487       -1.9576352631
 O          5.7726592879       -0.3240753601        0.4473752486
 H          5.4014533772       -0.0823185451        1.2990806297
 H          5.1963660067       -1.0182813719        0.0779829304
 O         -0.8045502685        0.2988840649        0.1115513906
 H          0.1289474913        0.3180485266       -0.1589003869
 H         -1.2126049311        1.1085807862       -0.2713219159
 O         -4.9537345777       -2.3107686693        0.6235095939
 H         -5.7521960272       -2.6677539947        0.2359310352
 H         -4.5706304702       -1.6788225991       -0.0443535340
 O         -4.2751064389        2.4130971167       -1.4189556298
 H         -3.3176283783        2.5704646658       -1.4772364867
 H         -4.4172604047        1.5347744257       -1.7855416086
 O          1.4594149691       -0.1630251110       -1.2545288175
 H          1.3148212875       -0.9716295296       -1.7845855056
 H          2.3532890498        0.1502915405       -1.4672857878
 O         -5.0813124217       -0.2537430684        2.5205616358
 H         -5.1720343727       -1.0220337873        1.9331480549
 H         -4.3699849760       -0.4912974724        3.1387631725
 O         -1.9955166496        2.6844041292        2.6310143765
 H         -1.4738532508        1.9081743893        2.9219883971
 H         -2.6668877209        2.2846362649        2.0380796765
 O         -2.9397046531       -3.3116232009        2.2522767455
 H         -2.1348718967       -3.3770978356        1.7088585923
 H         -3.6601548263       -3.0562027585        1.6523166555
 O          1.6908989245        2.6757613809        0.3028700430
 H          1.7421183111        1.8832663303        0.8980237407
 H          0.9375023366        3.2033582995        0.6220555938
 O         -1.3872881472       -1.8111240221       -1.3587235393
 H         -0.7000919338       -1.9308630362       -2.0264083019
 H         -1.1294739470       -1.0215665910       -0.8149977977
 O         -1.5082843750        2.5612615515       -1.1635520108
 H         -0.7412595456        2.5794426617       -1.7712451210
 H         -1.2847132320        3.1909647953       -0.4530427224
 O         -0.8400032159        0.2766722917        2.8761974832
 H         -0.9367224560        0.1872432024        1.9100874297
 H         -1.5549822233       -0.2524535241        3.2681413361
 O          4.2139126778        3.5441317211        0.5602076459
 H          4.2243173009        4.4750184561        0.3365141626
 H          3.2806757488        3.2454801272        0.4727354530
 O          3.7595235567       -1.5987816866       -3.2252507431
 H          4.5097669239       -1.7069879232       -3.8107547278
 H          3.6674400654       -0.6288334053       -3.0822473451
 O          1.7442092530       -3.7552874569       -0.4831646120
 H          0.9541316714       -3.6660273768        0.0781455086
 H          2.4105356903       -3.1331543089       -0.1603421271
 O          3.5527129228        0.9615800011       -2.5686327482
 H          3.0016387943        1.6993596225       -2.8505591167
 H          4.3331639070        1.3473206927       -2.0776355474
 O          1.7865601537        0.5633841723        1.9375958814
 H          1.0812822388        0.7200873961        2.5779855913
 H          1.6357381652       -0.3374842889        1.6060562963
 O          0.7826326378       -1.9668662356        2.1155840794
 H          0.2344731874       -1.4475293130        2.7172264066
 H          0.1924787207       -2.5914657586        1.6814712925
 O         -1.7415020155        0.3425742972       -3.0852758888
 H         -1.8854851311        1.0742417941       -2.4784374353
 H         -2.0683345640        0.6156029023       -3.9411006556
 O          4.3152787112       -0.1945500739        2.7865262843
 H          3.5082143148        0.2661625594        2.5059742566
 H          4.0733837639       -1.1151303370        2.9037918497
