  461
       -778.77458827
 H          0.6170384905        1.8299000942       -0.1223224058
 C          1.3889087091        1.1875618824        0.2953375480
 H          2.3103203514        1.7491288500        0.4576255983
 C          1.6820709055        0.0258160171       -0.6463972910
 H          2.5599941355       -0.4971833208       -0.2732644783
 H          1.8956038933        0.4126323930       -1.6368522255
 N          0.5731392196       -0.9140476397       -0.7250208906
 H          0.1531759176       -0.9885206765        0.1951480853
 H         -0.1555783629       -0.5409648092       -1.3230573054
 O          0.8757895256        0.7162772554        1.5388873124
 H          1.3639293543       -0.1010931055        1.7927551427
 O          2.1810212534       -5.6723123289       -2.1609021458
 H          2.4442087376       -5.3773621251       -3.0599033259
 H          1.5118294531       -6.3573554463       -2.2878126838
 O         -0.3787074621       -1.0903987967       -6.0096647213
 H         -0.9296675415       -0.4556952378       -6.4722812435
 H         -0.5750674946       -0.9617326679       -5.0461359159
 O          1.6852168264       -3.0624204288       -6.2603697730
 H          0.9243190131       -2.4689017195       -6.2330403398
 H          2.4425392943       -2.5159450313       -6.5074356559
 O          4.5462154786        0.6356891946        0.1387082198
 H          5.1426407807        0.1769123979       -0.4728882384
 H          4.7350237105        1.5831477531        0.0278477363
 O          2.1651176065       -1.0714552337       -4.1510272686
 H          2.7913146511       -1.0874082160       -4.8996739987
 H          1.8126079691       -0.1754860282       -4.0525937743
 O          0.5511894058       -3.1820493446       -3.4554721048
 H          1.1528797171       -2.5774903089       -3.9199870371
 H          0.9785223310       -3.3781136353       -2.6010387959
 O         -3.5520675470       -0.9365838108       -2.6124564999
 H         -4.0056217459       -1.1795738039       -3.4431464256
 H         -3.9349496185       -0.0867718891       -2.3329666587
 O          0.5506360357        1.1808022163       -3.5175257391
 H          0.4025321965        1.8939212046       -2.8670448721
 H         -0.0491943711        0.4567487070       -3.2495157818
 O         -2.9107950001       -4.5951667306        0.0995091901
 H         -2.0161011886       -4.4639748464       -0.2498422828
 H         -2.9294879054       -5.5331103640        0.3789956751
 O          1.6701530465       -3.2564006574       -0.9715789947
 H          1.1841547149       -2.3786364483       -0.8285802001
 H          2.5136065678       -3.0063470016       -1.3916557759
 O          1.9187977218       -1.7270522135        2.0355503856
 H          1.1500995988       -2.2722276707        1.7662536263
 H          2.6635798691       -1.9657903133        1.4552870569
 O          0.0906179925       -1.9829912237        4.2004666957
 H          0.7426041925       -1.2591696605        4.1225589017
 H          0.5033779474       -2.8255241764        3.9424514755
 O         -5.3913810100       -3.4938316171        3.5773036498
 H         -4.7609019498       -3.3667411449        4.3013842670
 H         -4.9504191531       -3.0795270336        2.7950963313
 O         -1.8922524596       -2.1139334264       -0.5900447821
 H         -2.0406436284       -2.4893783964       -1.4696448559
 H         -2.4384683735       -1.3245107913       -0.5137760765
 O         -2.1631046356       -1.0944193267        3.1351558665
 H         -1.2645780051       -1.4407603438        3.2722797063
 H         -2.4902851597       -0.9307331651        4.0436726264
 O         -1.9960343199        3.6403945469       -0.4257142223
 H         -2.9110494435        3.5713102446       -0.7190023730
 H         -1.8829177579        2.9663423013        0.2891952741
 O         -1.0496784620        1.7307244502       -5.5415287188
 H         -0.3742269643        1.5099375898       -4.8445105370
 H         -0.5431081657        2.0581253832       -6.2861398035
 O          5.0938770115        3.2673364825       -0.3066444353
 H          5.6241665312        3.7424358568        0.3598623797
 H          4.1977037489        3.6370860527       -0.2555810300
 O          2.5368662450       -4.3821124729        1.3667281838
 H          2.5274485174       -5.3570713335        1.3196959707
 H          2.2210966774       -4.0329027166        0.5089513389
 O         -1.7395583799        1.7074967139        1.3422975515
 H         -0.8699883749        1.3065273164        1.4573461540
 H         -2.3314273415        1.0149375008        1.0016231089
 O         -4.6457196700       -3.0076486825       -1.3199078569
 H         -3.8707324283       -3.4881919494       -0.9981537794
 H         -4.3306442113       -2.1350821505       -1.6276051583
 O          1.6559267486        2.9150140182        2.8036245364
 H          1.3342727713        2.0203289075        2.5790057130
 H          1.1212354868        3.5232278919        2.2505326375
 O          4.3372979589       -4.3111268309        3.4007419205
 H          3.8273921782       -4.2784812346        2.5664643800
 H          5.2661973147       -4.2029928349        3.1652483527
 O          6.4588105849       -1.2342494614        1.3364458387
 H          6.5577358275       -1.9669997212        1.9665168450
 H          7.2054080909       -1.3448226123        0.7156710390
 O          6.2816722884       -0.5777218743       -1.6762267781
 H          6.9821564974       -0.0507550077       -1.2523275718
 H          6.5042652368       -1.5226667789       -1.6217949148
 O          6.4219024920       -2.3173934228       -5.5776096082
 H          7.3540436073       -2.5409863168       -5.5118526861
 H          6.3681316473       -1.4188758553       -5.1392330520
 O         -6.2149731203       -0.7076718196       -1.5070243627
 H         -7.0682440752       -0.9726150797       -1.8786295298
 H         -6.3246556562        0.0956753424       -0.9724557062
 O         -3.6765335798        0.8298621887       -5.7047174756
 H         -4.1665668891        1.6444408281       -5.5042272203
 H         -2.7401814997        1.0655621702       -5.6575665848
 O         -5.9818885763       -3.7242291397       -3.4007171347
 H         -5.6171933515       -3.1760509271       -4.1034410454
 H         -5.4944374210       -3.4393680734       -2.5740087795
 O          4.0267373355       -6.6176683851       -0.6122186487
 H          4.5835643693       -7.1474352480       -1.1810964744
 H          3.3419841674       -6.1979359837       -1.2066521726
 O          9.9160267881        0.5789345600        1.0273951072
 H         10.1464537065        1.5058411332        1.2524903810
 H          9.5224474337        0.2007555965        1.8320691743
 O         -1.8744423839        6.2932097218       -0.0421319673
 H         -2.4534983265        6.3555669850        0.7526961918
 H         -1.7502769920        5.3247816695       -0.1640562927
 O          1.6146506620        0.2500095147        4.1929405582
 H          1.7885990082        0.3034353463        5.1498223891
 H          2.4691762703        0.2287940321        3.7246997641
 O         -3.5619516504       -0.0320163248        0.2360123827
 H         -4.3660614624        0.4979605952        0.0972729319
 H         -3.8412500634       -0.8136762688        0.7474355807
 O         -5.8280967108       -0.3805632568        2.3464321333
 H         -6.2703050079       -0.6299318848        3.1751311705
 H         -5.9357521382       -1.1549553797        1.7522102189
 O          6.5093269096        1.3600889189        2.1192626146
 H          6.4125343441        0.3930725051        2.0367091580
 H          5.6180710260        1.7487407749        2.1830717290
 O          4.2896141827        2.8459071648        2.5162223978
 H          4.5500874433        3.7575325457        2.7491198753
 H          3.3116595568        2.8475950292        2.4808064026
 O         -5.6418975477       -4.9511172048        0.5899482626
 H         -5.3215200916       -5.3927096506        1.3906391686
 H         -4.8453371093       -4.7746403465        0.0749234814
 O          4.0706822172        1.3029382876       -5.6564678165
 H          4.3099691843        2.2420300108       -5.6813997851
 H          4.2716265817        1.0069228361       -4.7469954624
 O          0.1619304485        2.3069664759        6.6779418626
 H          0.6122656600        1.5176235314        7.0069425232
 H          0.8763903074        2.8644808829        6.2986058696
 O          3.7076854207       -2.0338061165       -2.2200072444
 H          4.2952861856       -2.6287525485       -2.7357833597
 H          3.1064754296       -1.6349279505       -2.8837974948
 O          4.5313695669        4.0519220993       -5.3906974849
 H          4.4386077542        4.5069361798       -4.5324252665
 H          5.4928193705        3.9101502246       -5.4671223681
 O          7.6929761088        1.2881128756       -0.2527709745
 H          8.5432094096        0.9588035730        0.1117104026
 H          7.1228901505        1.3916395363        0.5372410905
 O          3.9508377258        0.0609976750        2.7986519118
 H          4.7089192541       -0.4584256598        3.0900436948
 H          4.0633731148        0.2256299502        1.8472865041
 O         -2.5111774668       -0.1312025290        5.6070661743
 H         -1.9596689870        0.5723434816        5.2212089177
 H         -1.9525429672       -0.6373330057        6.2064120799
 O         -2.1043946474       -3.7023078789       -2.7979891340
 H         -1.3625505704       -4.1545667249       -2.3667944684
 H         -2.8197831094       -4.3749363200       -2.8581936664
 O          2.3515774972       -7.0634048064        1.5541848732
 H          2.8327416255       -7.2539249127        0.7381072130
 H          1.3933506545       -7.0423989577        1.3669831735
 O         -1.0201837800       -0.9805990021       -3.4628122307
 H         -0.6526187875       -1.8514107207       -3.2319227468
 H         -1.9355039379       -0.9297211035       -3.1096945273
 O          5.2086532269       -3.6742584029       -3.6747424907
 H          5.9002080076       -3.7436296007       -2.9984984714
 H          5.6387298406       -3.2124214554       -4.4327553065
 O         -1.5081181389        0.9850751228       -1.5313047856
 H         -1.7778493751        1.7041260532       -2.1149800401
 H         -2.2958513886        0.7091776810       -1.0540357694
 O          3.8756600425       -1.3254376904       -6.2681616160
 H          4.1580079117       -0.3972527512       -6.2949853202
 H          4.6913306591       -1.8343435571       -6.1754276192
 O         -2.6546946600       -5.7423489287       -5.5330810230
 H         -1.7181512888       -5.8740275514       -5.3166323901
 H         -2.7068425270       -4.8015363373       -5.7659845764
 O         -0.0154209082       -5.4899358028       -4.7264070308
 H          0.7692912111       -5.6488352766       -5.2540584059
 H          0.1358755765       -4.6133196905       -4.3060821152
 O         -2.0027533947       -4.1094406088        3.3335490204
 H         -2.4607636900       -3.5640464926        3.9967830894
 H         -1.1706509309       -4.3918324747        3.7298618441
 O          4.3963914836        5.0518058702       -2.8308210571
 H          3.9667230213        4.2083986816       -2.5673556064
 H          3.7779799830        5.7425861435       -2.5332565137
 O          2.9094318184       -4.8759842158       -4.5895406255
 H          2.4747984039       -4.2223761439       -5.1650964480
 H          3.7801802255       -4.5112522356       -4.3690987428
 O          2.6103852759       -6.2893024364        4.2634570257
 H          2.5617544542       -6.8156271591        3.4530649892
 H          3.3727163949       -5.7029695250        4.1388732836
 O         -6.5957317605        1.6207661395       -3.5699089059
 H         -5.8121738799        1.4301193958       -2.9989751563
 H         -6.8051201154        0.7951233058       -4.0684770455
 O         -7.1612693482       -0.6459691284       -4.7889289290
 H         -6.3183197068       -1.0864385573       -4.9659892497
 H         -7.6363859551       -1.1959260754       -4.1530506847
 O          8.5971323385       -1.9701446488       -0.1100680072
 H          9.1373975669       -2.2830661009        0.6285037903
 H          9.1615696850       -1.4028371714       -0.6780806569
 O          4.1655389313        0.7549971099       -3.0018832642
 H          4.1920961006       -0.0173723720       -2.4266792429
 H          3.5850667343        1.4423166036       -2.6248382147
 O          4.1293492873       -2.2192155216        0.4624465565
 H          4.0564686743       -2.0522597173       -0.4916253943
 H          4.9053052089       -1.7057575956        0.7645756653
 O         -8.1785969484       -2.2006079022       -2.6815788853
 H         -8.6586070012       -2.6475403172       -1.9535643260
 H         -7.5046935817       -2.8489318859       -2.9606835852
 O         -2.7343355146       -7.1408319014        0.9087418264
 H         -3.3004153309       -7.0639536482        1.6869295599
 H         -1.8124109235       -7.0210360470        1.2085758677
 O          1.5027246624        1.1349557955       -6.4003298728
 H          2.4678825269        1.0704182841       -6.2599919483
 H          1.1355135225        0.2508082019       -6.2734283238
 O         -2.6434119362       -7.6910587465       -1.8559035054
 H         -3.2117197894       -7.0159980144       -2.2587441408
 H         -2.7636728099       -7.6266833086       -0.8990077440
 O         -4.7502516124        3.8202318236       -0.7664581419
 H         -4.7112041988        3.6944114724        0.2082280345
 H         -5.6156538523        4.2410748014       -0.9556652267
 O         -0.3176731385       -3.0703945204        1.3391884390
 H         -0.9517426759       -3.3693964776        2.0054508208
 H         -0.8517772521       -2.7356333547        0.5978834397
 O          6.3072265749       -0.0299130238       -4.3832475970
 H          6.3753712888       -0.2395505251       -3.4343829397
 H          7.1349814070        0.3968897269       -4.6656551466
 O         -6.4974652595       -2.3012127397        0.6562879992
 H         -6.3195560348       -1.8433840890       -0.1956877353
 H         -6.0795169173       -3.1758799831        0.5850442220
 O         -5.1812036765        3.1317695467       -5.1676405389
 H         -5.7809855788        2.6217779354       -4.5579085959
 H         -5.6899255481        3.2858532117       -5.9636946552
 O         -2.2616438466        5.4723583013       -4.1259076586
 H         -2.7424770483        5.7571369346       -3.3011323181
 H         -2.7803706752        5.7878110929       -4.8658640449
 O         -3.7620953761        1.1221909187        3.0551643085
 H         -2.9449500815        0.6087904974        2.9936011045
 H         -4.4838723585        0.5414904203        2.7420311162
 O          6.2212565472       -1.2398174912        4.0959497507
 H          5.7447053496       -0.9591035849        4.9095463466
 H          6.2827049882       -2.1973383771        4.1187248776
 O         -7.0920502138        3.6205000427        1.0158858835
 H         -7.8134540837        3.8053608180        0.3793458205
 H         -7.5308857520        3.3242413474        1.8378705019
 O         -3.9065143541       -5.6023115116       -3.2046106944
 H         -3.5278460997       -5.7998069415       -4.0959055340
 H         -4.7712411416       -5.1942493100       -3.3592857299
 O          4.2876386596        2.0559656347        5.0664841298
 H          4.2916366514        2.1012005063        4.0823702993
 H          3.5167291796        2.5781691866        5.3424794155
 O          6.2896005957        2.3200646195       -2.5767228229
 H          5.6311861215        1.6368444717       -2.8276277575
 H          5.9154856660        2.7488896334       -1.7867601807
 O          2.2278150363        6.3117191935       -1.7381296896
 H          1.5694569611        6.0477846684       -2.4000937857
 H          2.3461431692        5.5468167333       -1.1340780404
 O          8.5990811616        1.2017533621       -5.2353381827
 H          8.1546549829        1.9949664607       -5.5620118792
 H          8.9412076670        1.4619367898       -4.3607419196
 O          0.2847549732        3.3399836029       -1.7778934080
 H          0.2519197143        4.1012782444       -2.3882793424
 H         -0.5493806950        3.3806885125       -1.2685195204
 O          7.1247250079        3.5645802061       -4.8081829742
 H          7.4485017145        4.3794822266       -4.4127453092
 H          6.7785595580        3.0583691020       -4.0394970505
 O         -4.5585849548       -1.6063493967       -5.0027506302
 H         -3.8195716162       -2.1966056516       -5.2673271688
 H         -4.3050680338       -0.7267516778       -5.3522999957
 O         -9.1380658301        3.9453235651       -0.7243415125
 H         -9.8094082474        3.6716678518       -0.0843090975
 H         -9.0102576375        3.1486347789       -1.2889003527
 O          8.7371944417       -0.4807266630        3.3099511456
 H          7.8009623931       -0.6402305334        3.5344053838
 H          9.0601883275        0.1611548310        3.9732217033
 O          6.7888515073       -3.3120004046       -1.5229687591
 H          7.6377866275       -3.0547750464       -1.1313622916
 H          6.3109871149       -3.8087676420       -0.8271866883
 O          6.7885819583        4.6810862401        1.3297321834
 H          7.2006875738        4.2165448356        2.0824163530
 H          7.4394061746        4.5991839376        0.6058381712
 O         -2.3391455897       -3.0287529263       -5.4004699235
 H         -1.5909891416       -2.5242595697       -5.7498548894
 H         -2.1307753035       -3.2191222757       -4.4592666405
 O          1.8362276906        3.4736732110       -5.0232712536
 H          2.6771460852        3.7593961552       -5.4058998785
 H          1.6061144837        2.6373415762       -5.4685534217
 O         -4.2465573842        3.4398731933        1.8284010660
 H         -4.9714061472        3.5213706900        2.4767743439
 H         -3.7752394157        2.6301537470        2.1026209090
 O         -3.8697332764       -2.4242326311        1.6469566672
 H         -3.1837081619       -2.0109652674        2.2166516847
 H         -3.4375232087       -3.1372951333        1.1519863269
 O         -4.1486382116       -5.7837145122        2.8393090161
 H         -4.7978875718       -5.2147669746        3.2839644369
 H         -3.3176063431       -5.2780163030        2.9127263423
 O          2.4001034100        5.9823149114        2.2539125498
 H          1.9155046055        6.6088788466        1.6932923266
 H          1.7757247367        5.7550584640        2.9726125313
 O         -4.7141051516        1.6039193683        5.4463543233
 H         -4.0187927664        2.0378242832        5.9724305212
 H         -4.2704559925        1.3838522848        4.5888376529
 O         -2.6718135905        3.0606184547        6.5157791290
 H         -2.7651870348        3.8675549310        5.9967957332
 H         -1.7328023618        2.9069593171        6.6708260115
 O          2.5940063200        4.3440610383        0.0764222417
 H          2.6571931690        4.8693877667        0.8985088125
 H          1.6977730170        3.9775844269        0.0875420194
 O         -6.0375728746        6.1716531087        1.0125732924
 H         -6.2239061646        6.2967865062        0.0746603271
 H         -6.3921089162        5.2851487997        1.2073410362
 O         -3.3972956005       -2.8220001495        5.3662799882
 H         -3.9301121595       -2.0482812276        5.6345025096
 H         -2.6172122388       -2.7835265776        5.9421499997
 O         -2.3798703911        2.8452350963       -3.4485487244
 H         -1.9946625266        2.4414725278       -4.2408865484
 H         -2.3788066879        3.7999263133       -3.6242945905
 O          0.4766487645        5.5824182230        4.1425849186
 H         -0.0025789700        6.3960156423        4.2945964662
 H         -0.2033631172        4.9186079399        3.8490440296
 O          1.9006929798        0.0792023844        6.9080859357
 H          1.6539989430       -0.8598192180        6.9891864508
 H          2.8677218762        0.0858382798        6.9606595124
 O          8.9322793148        1.8579903872       -2.6578501172
 H          7.9533470340        1.9057019907       -2.5408051642
 H          9.2839878399        2.6315641805       -2.2075197218
 O         -1.3990178025        3.9194430320        3.3245359492
 H         -1.2749926951        2.9746665711        3.5509146327
 H         -2.2367727439        4.2027253822        3.7373016886
 O         -8.4810630250        2.7416808771        3.1512828802
 H         -9.3086016969        2.8696583559        2.6658481938
 H         -8.4386952309        1.7716645056        3.2729702963
 O         -8.6936394895        0.0633162558        3.1378570141
 H         -8.1910077677       -0.5211851028        3.7260748015
 H         -9.5624284483       -0.3756405815        3.0111533142
 O         -8.6454328273        1.6270477482       -1.9016165450
 H         -8.3786004349        1.1566447024       -1.0937615841
 H         -7.8689303795        1.6729820636       -2.5027775067
 O         -3.6487509046        6.0238334364       -1.9977915687
 H         -3.0164470662        6.3607688145       -1.3272076183
 H         -4.0466473763        5.2343856065       -1.5800918031
 O         -6.8414012154        5.2898585050       -1.5371389735
 H         -6.6669482437        5.4416032456       -2.4835772098
 H         -7.7551460919        4.9965322501       -1.4379030380
 O         10.0857886139       -0.3473064153       -1.6085295817
 H         10.4912602005        0.0053108412       -0.8065365992
 H          9.6354231256        0.4184074653       -2.0218648748
 O         -7.4353840118       -5.3999745978       -1.4613513826
 H         -6.8207549426       -5.3382349723       -0.7101714894
 H         -6.9767873651       -5.0282845781       -2.2211713689
 O         -0.7871960990        1.5182774045        4.3268601365
 H         -0.4763029403        1.8675850639        5.1901021779
 H         -0.0385290819        1.0092712738        3.9816227514
 O          6.2239303749        3.9590320464        5.1521420395
 H          5.5886708823        3.2228428256        5.2627420355
 H          5.7405697517        4.6470396237        4.6733815682
 O          8.9026534297       -1.5367182956       -4.2262595984
 H          9.4015051680       -1.3763845739       -3.4208573308
 H          8.9867728835       -0.7381356904       -4.7592446662
 O          0.8047239733       -4.5125485733        3.4512880200
 H          1.3567405666       -4.2901828310        2.6715212131
 H          1.3453391096       -5.1634002004        3.9472684643
 O          0.4186975008        5.3117350667       -3.5815563871
 H         -0.4931974397        5.4707339090       -3.8731141454
 H          0.8529052840        4.7552509616       -4.2506142562
 O          0.6521978897        7.0234381417        0.4491574213
 H          1.1571311397        7.0109901247       -0.3815735900
 H         -0.2931332070        6.9892766125        0.2005512962
 O          5.4317380832       -4.5318090981        0.4393146114
 H          4.9308421813       -5.3151213559        0.1448993418
 H          4.7806590398       -3.7936410365        0.5039082115
 O         -0.1676508064       -7.0408621782       -2.5143203127
 H         -0.2369939463       -6.6391653334       -3.4014597661
 H         -1.0502594259       -7.4331961963       -2.3143238320
 O         -4.3756806211        1.5953202322       -2.1916959719
 H         -3.7351037108        2.0526629959       -2.7698461767
 H         -4.6371604397        2.2574442286       -1.5225586130
 O          9.5329547026       -2.8241517643        2.3607808670
 H          9.2985075054       -1.9539131012        2.7633874501
 H         10.3985438162       -3.0560530910        2.6943798158
 O        -10.6687724560       -1.2519436119       -0.3501914020
 H        -10.7536342631       -0.8553514890       -1.2487930484
 H        -10.4094620129       -2.1707781063       -0.5068776441
 O        -10.7541881177       -1.4496230585        2.4092585761
 H        -10.1291875473       -2.1924772524        2.3681696846
 H        -11.0013807355       -1.2929928539        1.4867028525
 O         -3.5523314880        6.0070571214        1.9772794573
 H         -3.6075857843        5.0286126805        1.8943303790
 H         -4.4386639593        6.2946871958        1.6756521979
 O          9.3168405917        1.5277001225        4.9852809623
 H          8.9109861369        1.6675714473        5.8412706729
 H          8.9653071387        2.2302801160        4.3986345698
 O         -8.6184989911       -3.1596177034        1.9508345047
 H         -7.8548525587       -2.7119335300        1.5158458934
 H         -8.2362016083       -3.7557935895        2.5947382684
 O          1.7753345879       -2.6556854441        6.7660996612
 H          2.3932697554       -3.1957173814        7.2566367803
 H          2.1421656399       -2.5791264548        5.8566003606
 O        -10.3586086588       -0.2870549335       -2.7982460042
 H         -9.8339347805        0.5107204019       -2.5922488439
 H         -9.7241724395       -0.9543590241       -3.0838659373
 O         -0.9999096441       -2.2526083175        6.5908070433
 H         -0.5867254634       -2.1445090858        5.7011129968
 H         -0.2846414610       -2.5795763970        7.1401305514
 O          0.1277762341        4.3458486833        1.1781895874
 H          0.2052955819        5.3036640581        1.0487417143
 H         -0.6504041412        4.1859328943        1.7395920976
 O         -5.8850849607        3.5566668665        4.0066978811
 H         -6.8348435268        3.4487755936        3.8826573666
 H         -5.5987718653        2.8186406391        4.5862035341
 O          2.0342147648        3.6061955705        5.3031470457
 H          1.7792743185        4.5341727807        5.2751317600
 H          1.8360947015        3.2856495428        4.3875211189
 O          3.0268605694       -2.2523991910        4.4283029856
 H          3.5581264863       -3.0351743244        4.1863278755
 H          2.6313257836       -1.9525928572        3.5784382489
 O         -6.9991964821       -1.5615787383        4.5031575257
 H         -6.4553205107       -1.2832975017        5.2599886663
 H         -6.5724062605       -2.3766705830        4.1670712109
 O          7.9506768847        3.1881259437        3.3386590497
 H          7.4702890326        2.4235925653        2.9481631011
 H          7.3655363445        3.5200197603        4.0682989120
 O          6.8890318630       -3.6592645132        2.5378469697
 H          7.8547426685       -3.6022473862        2.4836133369
 H          6.5769921750       -4.0906420972        1.7188602065
 O          4.8809973299        5.4056257060        3.1641069172
 H          5.5244221225        5.5317568777        2.4535638109
 H          4.0382871030        5.7915928221        2.8694447444
 O         -5.1158070584       -0.8634963438        6.3032365338
 H         -5.0898782380       -0.8209971902        7.2577876221
 H         -4.8959079391        0.0524092348        5.9826495987
 O         10.0644349381        3.2103456426        1.4880031465
 H          9.4515062215        3.3357119885        2.2264166762
 H          9.6366794804        3.5944399901        0.7109217214
 O          8.3697238649        3.8567862528       -0.6756015204
 H          8.0066245868        2.9425131382       -0.5975953678
 H          7.8947595618        4.2970754178       -1.4050108555
 O          4.4515036756       -0.4811249975        5.9174983585
 H          3.8650774133       -1.0301909784        5.3567862668
 H          4.4040637241        0.4367197672        5.5759011670
 O         -5.6490884466        5.6162242320       -3.9619288842
 H         -4.9433158570        5.9349435461       -3.3850135997
 H         -5.3689950829        4.7527631436       -4.3104011289
 O         -3.5558275786        5.0143735770        4.5306599093
 H         -3.5787010707        5.6659075710        3.8082887622
 H         -4.4147113018        4.5652831269        4.4807576776
 O         -5.9554503311        1.3217244143        0.2594374598
 H         -6.0900359607        0.8000157362        1.0686755832
 H         -6.3218189089        2.2047533995        0.4643516069
 O          7.0455507726        5.3180264778       -2.5612890526
 H          6.0758209274        5.1553155853       -2.6105380165
 H          7.1496644717        6.2428336634       -2.3401595800
 O        -10.3083854095        2.2431574844        1.1132477343
 H         -9.6607758859        1.5571254259        0.8249798028
 H        -11.1520918612        1.7960507626        1.1733472769
 O         -0.4258462960       -4.9376778746       -0.9582380086
 H          0.4049118810       -4.4311199948       -0.9440924289
 H         -0.2781859116       -5.7495540961       -1.5008724934
 O         -0.2215811466       -6.2302227328        1.4116634854
 H         -0.0737262667       -5.6109006947        2.1440318488
 H         -0.2881135311       -5.6765576908        0.6035019199
 O          2.7970556052        2.9448333775       -2.5326249346
 H          2.4579036933        3.0545889043       -3.4463264300
 H          2.0155172349        3.0492408780       -1.9693184924
 O         -8.5879922452        0.2477673773        0.4448849745
 H         -9.2865680737       -0.3928101661        0.1923033391
 H         -8.3908717459        0.0860225684        1.3864938282
 O         -9.3067376675       -3.6506637518       -0.6897364564
 H         -9.1178426064       -3.5814314704        0.2613068085
 H         -8.7760604504       -4.4173178883       -0.9954678820
