  309
       -524.47815341
 O          3.7725380004        0.9055993017        0.8262478525
 H          3.4719837090        0.6558681418        1.7149262898
 H          4.5733519767        1.4586783115        0.9452217918
 O         -8.9237764413        0.1858283243        2.4478511398
 H         -8.4705454687        0.0353531928        3.2819888015
 H         -9.1661131179       -0.6953741218        2.1020174389
 O          3.5638836356       -2.1581586527        4.0208795385
 H          3.3751462384       -2.9928771825        3.5485231441
 H          2.7244173845       -1.8949640423        4.4258447334
 O          0.5452853243       -4.0677049549        4.0949956648
 H         -0.3792630832       -4.0386050662        3.8140388705
 H          0.7365440897       -3.1975736616        4.4823572361
 O          5.2276079049       -1.4573717933       -5.3066286146
 H          5.5564800453       -0.5490687513       -5.3663387130
 H          5.5323121407       -1.7636251634       -4.4302193324
 O         -1.4626364986        5.3796038750       -3.5079446781
 H         -1.8942438903        5.6028426286       -2.6743004872
 H         -0.5415589406        5.1412745050       -3.2993689605
 O          6.1030524421       -1.7221045344       -2.7564357784
 H          6.9606901249       -1.2681183618       -2.8746900288
 H          5.5158985879       -1.0657004754       -2.3350092256
 O         -3.9727946701       -0.8815005729        5.0126467294
 H         -4.1737878858       -1.8149908335        5.1364921405
 H         -3.5166378068       -0.8415060260        4.1301233153
 O          8.2521376151        1.8784122386        1.4907069704
 H          8.6386586663        1.2119017802        0.8913687486
 H          8.3147264349        1.5215054387        2.3989866418
 O         -0.6487789438        5.8251684437        3.0844707485
 H         -0.6157107443        5.1178931347        3.7367145362
 H         -1.5318732023        5.7913581389        2.6691833403
 O         -2.1777709865        2.7813003586        2.2903280665
 H         -2.7999660710        2.3543726032        2.9002138102
 H         -1.7913807566        2.0806438271        1.6834710164
 O          8.2912586644       -2.0122779685        1.1631621745
 H          8.1136357830       -1.9982268662        2.1229944392
 H          8.0978856589       -2.9386018588        0.8719081474
 O          0.7766134370       -4.4179445322       -3.9583679180
 H          0.4594738724       -3.6662401080       -3.4044950556
 H          0.1386580319       -5.1202618352       -3.8115010385
 O         -3.7793498347        1.8955167222        4.3609043138
 H         -4.6441284037        2.1866772504        4.0456329512
 H         -3.9025052219        1.0132795866        4.7303938866
 O          4.3291998746       -2.4027458851        0.5195022256
 H          4.8976434838       -1.6087253936        0.4512616858
 H          4.7006691887       -3.0083574208       -0.1642841512
 O          2.6623633199       -0.9894131258       -5.0770994402
 H          2.7272493602       -0.0195453861       -5.1806866889
 H          3.5827604454       -1.3046693200       -5.2568546721
 O          7.4323783884       -4.4297583563        0.5716152450
 H          6.8619198298       -4.3772032341       -0.2113024604
 H          6.8203320012       -4.4535242774        1.3283013888
 O          5.2562410134       -0.2746781033        2.9466813059
 H          5.3131824480        0.5415060333        3.4860758430
 H          4.5302057169       -0.8269532900        3.2946003738
 O         -2.8651353838       -0.6466929311        2.6415210989
 H         -3.0096412280       -1.4934256548        2.1780738750
 H         -3.3937524109        0.0211935851        2.1490856143
 O          6.1433726344        1.1385595778       -4.6855800282
 H          6.9752007181        0.7518911867       -4.3860041592
 H          5.9384912928        1.8297557346       -4.0364424781
 O         -3.9175027145       -4.8262052668       -1.2195154002
 H         -4.2246933798       -3.9048373105       -1.0904684170
 H         -3.4229679864       -5.0701936615       -0.4226031973
 O          2.5646858717        0.5802328517        3.2812775563
 H          2.2969810716        1.5069161476        3.1327966432
 H          2.8949975556        0.5325587177        4.1938205633
 O          3.6516826365        5.4330961512        0.6911698096
 H          4.0640298244        5.1670529639        1.5317919382
 H          2.7061000685        5.5505585381        0.8953223972
 O         -0.1141084939       -2.2507798511       -2.5882523962
 H         -0.3646975321       -1.5365546142       -3.2073243760
 H          0.7967357268       -2.0168564739       -2.3276738094
 O         -6.3284917643        4.1779879669        0.0901165667
 H         -5.4865968497        3.6896937007       -0.0446899779
 H         -7.0061145397        3.5038558160        0.2289127281
 O         -7.6704643801        1.8605462697        0.7947139536
 H         -7.1238849156        1.2195210061        0.3137298282
 H         -8.2922348988        1.3183796631        1.3257594063
 O         -3.7968560861        0.2442524129       -1.3230862275
 H         -4.1831885026        0.4138555005       -0.4527726079
 H         -3.2384680415       -0.5576042599       -1.2451218966
 O          5.7579649595        2.6194788250        1.0132795890
 H          5.8250146925        3.2876160827        0.3038828369
 H          6.6801684223        2.3192642413        1.1986212983
 O          4.3094546536       -0.0025800139       -1.6672374328
 H          3.8447460972        0.7493669491       -2.0940225400
 H          4.2622992140        0.1725732960       -0.7125746835
 O         -6.1261351167       -1.7316017261        1.8653761289
 H         -6.6651677436       -2.4859609464        1.5566818812
 H         -6.2658548160       -1.0472701849        1.1637926710
 O          5.5130442870       -3.8877984494       -1.3395794996
 H          4.8210188463       -4.3275403468       -1.8534777398
 H          5.8378161198       -3.1529966039       -1.9044922902
 O         -5.8360534032       -1.8566991298       -4.9231200684
 H         -5.5363956597       -2.6680404860       -4.4858702768
 H         -5.2335926541       -1.7615089516       -5.6878808189
 O         -1.6017792069       -4.8124343615       -2.6232576833
 H         -2.4831378517       -4.9106315913       -2.2210038130
 H         -1.0528886356       -4.4441812802       -1.9090988612
 O         -0.3305946053       -4.1711797335       -0.2355614347
 H         -0.4449295357       -3.3615972075        0.3076624943
 H          0.6272262479       -4.3756103916       -0.1578903892
 O         -9.4179910937       -2.2007317998        1.2484168419
 H         -8.7861692463       -2.9216423820        1.1265378808
 H         -9.5190342836       -1.7925614494        0.3780758937
 O         -4.8598646166       -4.2794332986       -3.8640616251
 H         -4.0720096320       -4.2550163614       -4.4164959136
 H         -4.5779336184       -4.6418050401       -3.0139101515
 O          9.5453078498        0.0130927857       -0.0863080472
 H         10.4662439835        0.0336634301        0.1730267101
 H          9.1632343155       -0.7942618267        0.3092100071
 O         -2.0938034792        3.0162734413       -4.4747448201
 H         -1.9766082588        3.9636860518       -4.2126592070
 H         -1.2092396771        2.7460865751       -4.7776742830
 O          4.5732063640        3.9993850792        2.9493815663
 H          3.6473460944        3.6897444285        2.9979891954
 H          5.0096807192        3.4774311390        2.2405942164
 O          5.5781248280        1.9355347897        4.4334559524
 H          5.3036215675        2.7858246728        4.0339097689
 H          4.9343552638        1.7245939855        5.1241758989
 O          0.9265609439        4.2014068471       -2.8055610062
 H          1.8299841041        4.5036828272       -2.6178713178
 H          0.5227799667        4.0067942558       -1.9348436352
 O          2.5525114173        3.0390927738       -0.2255873770
 H          2.9096457677        2.2604782767        0.2443844660
 H          3.0588185949        3.8101417990        0.0648184399
 O          6.2271494475       -0.4900938080        0.4453302965
 H          5.9486762414       -0.1957867049        1.3294430350
 H          7.0174716245       -1.0540452172        0.5922489179
 O          7.1616989407       -1.9483370817        3.6618028812
 H          6.7482274692       -2.8045314345        3.4589817749
 H          6.4829381972       -1.2978765397        3.3583716894
 O         -2.1014346432       -3.4140743312       -4.8755594228
 H         -1.8209795835       -3.9475746811       -4.0988491944
 H         -1.2897491181       -3.0935800606       -5.2882744210
 O         -5.4978018427        4.9163730934        2.5676475723
 H         -5.9069366870        4.8594438577        1.6829172014
 H         -5.7138368862        4.0824243296        2.9977091626
 O          0.5329316056       -2.4329125152       -5.8429403552
 H          1.3761767877       -1.9429169068       -5.8083593103
 H          0.7310273622       -3.2558090738       -5.3635887229
 O         -0.4612224252        0.2577365902        3.7631534434
 H         -0.3316270882        1.2275912041        3.7945857944
 H         -1.2412823304        0.0581840889        3.2238244410
 O         -5.2027777671        5.4519201246       -2.1022799145
 H         -5.8136728162        5.2329162097       -1.3815252409
 H         -5.1211921966        4.6446355590       -2.6302205101
 O          8.1396855362        0.8330187719        3.9703463018
 H          7.3230554584        1.2518920425        4.2821759094
 H          8.0186203593       -0.1190597715        4.0434261042
 O          2.7280286530        1.9376418798       -2.5586412401
 H          2.6553624927        2.5018186360       -1.7455446139
 H          1.9195120457        1.3822993213       -2.4932668252
 O         -3.7644608983       -1.6851006119       -6.6170565935
 H         -3.1754433787       -2.3615093224       -6.2654741931
 H         -3.4556713027       -0.8385742163       -6.2515360720
 O         -2.9709306384        0.4470805980       -5.0786833708
 H         -2.9425815623        1.4066291593       -5.1435296311
 H         -2.0425221706        0.1717757122       -4.8951454582
 O          5.3271385076        2.9327778014       -2.7155296298
 H          4.3626709084        2.9273128251       -2.7249124803
 H          5.5746113128        3.7187493280       -2.2054375861
 O          8.5439604513        3.6052846968       -0.6244875559
 H          8.2203487045        2.7827159000       -1.0360121208
 H          8.7101120533        3.3440823997        0.2917827512
 O         -5.0117329144       -2.3422439994       -1.3657374562
 H         -4.4251708071       -2.0681292139       -2.1058060212
 H         -5.7912816064       -2.7764351609       -1.7667942916
 O          2.5433230433       -1.8110377696       -2.5348016753
 H          2.5334844576       -1.5264176151       -3.4756963441
 H          3.1920967634       -1.2187914111       -2.1037812083
 O          1.9388471155       -1.6588620294        1.8126215228
 H          2.0895899614       -0.9059482074        2.4038745663
 H          2.7888180000       -1.8421838703        1.3910648288
 O         -9.1422064069       -0.6178693652       -1.0404814845
 H         -8.9890574962       -0.7916107110       -1.9840926161
 H         -9.5458399190        0.2483886384       -0.9642612401
 O         -0.6320787980       -2.0903517172        1.4248750885
 H          0.3066761890       -1.9420117846        1.6628200212
 H         -1.0572627323       -2.5723629468        2.1575270273
 O         -2.2233490717       -5.5364168186        0.9238220364
 H         -1.4795448684       -5.0572617130        0.4613049801
 H         -1.8878727699       -6.4128326872        1.1105948006
 O          0.5200206847        2.1947617326       -4.6003055459
 H          0.7225835229        2.8616742832       -3.9078356805
 H          1.3077785932        2.1510166109       -5.1514386026
 O         -3.9425753480        3.0521546450       -0.4724572440
 H         -4.1734708101        2.8430567488       -1.3997299086
 H         -3.4052059163        3.8637517950       -0.5208264581
 O         -2.9644378860        5.2928910855        1.7434355280
 H         -2.6853969990        4.3587511836        1.8274919796
 H         -3.8658803254        5.3174220871        2.1229863495
 O         -1.7742907937        1.7948061139       -2.0930843831
 H         -1.8729692458        2.2064907962       -2.9742488970
 H         -2.5969731092        1.2907972292       -1.9242436862
 O         -7.2219032748       -3.4610518598       -2.3219898178
 H         -7.6074519921       -2.6505738837       -2.7213821676
 H         -6.8799108950       -3.9941230891       -3.0463245705
 O         -6.1589274066        2.1170175495        2.9842760604
 H         -6.8026564491        2.2131805760        2.2488889324
 H         -6.4529844725        1.3202797459        3.4787555222
 O         -6.5192364509       -0.3709793504       -0.3212241038
 H         -5.9296444420       -0.9930727263       -0.8000832870
 H         -7.4327398922       -0.5796124059       -0.5883134129
 O          5.3555820154       -1.5705818036        5.9011714350
 H          6.2188610418       -1.6315223765        5.4735493575
 H          4.7399111490       -2.0291454132        5.2942867683
 O          7.0612661427        1.3965682107       -1.3080052970
 H          6.3057110003        1.8095543913       -1.7626907205
 H          6.7060467305        0.7504344812       -0.6632059844
 O         -5.0376815439       -5.0428807147        1.6463126709
 H         -4.4488519406       -4.2883562766        1.4242330989
 H         -4.5757787768       -5.8324643398        1.3646183914
 O         -4.6792130835       -3.2787180535        3.8158512503
 H         -4.9785185161       -4.1526203034        3.5418779349
 H         -5.1235498159       -2.6689477225        3.2082569716
 O          2.8894390119       -4.5373511488        2.8339090416
 H          2.6754553249       -4.6231814780        1.8948529563
 H          2.0321467551       -4.5189083685        3.3001801849
 O         -2.1301627237       -1.7924625938       -0.8226219860
 H         -1.5507764494       -2.0455504787       -1.5666399909
 H         -1.5457460225       -1.7227976138       -0.0514296398
 O          6.1516997198        4.6520184195       -0.7446852868
 H          7.1193958050        4.4263744150       -0.7371564300
 H          6.0282941646        5.4666718794       -0.2571095015
 O         -3.7293135997       -2.7322436979        1.0999944406
 H         -4.5889756774       -2.2768736182        1.1299825340
 H         -3.3114656189       -2.5040542051        0.2497395308
 O         -0.3148511800        2.9610777205        4.1348575868
 H         -0.7908900719        2.9175661835        4.9963560533
 H         -1.0009070258        3.0437088137        3.4317111546
 O          1.0728981839       -1.5202175200        5.0733429050
 H          0.6058114822       -1.3804787948        5.9005450815
 H          0.6875642050       -0.8812531284        4.4435870022
 O          3.6961143211        0.5210529706        5.8153794927
 H          4.3431851998       -0.2196083425        5.9112272389
 H          3.1187858423        0.4753677022        6.5768192225
 O          2.2936714891       -4.3751029909        0.0347979492
 H          2.6189670551       -4.5854746373       -0.8684207332
 H          2.6458946772       -3.4937763315        0.2136142382
 O         -4.3499204968        1.0641500431        1.2806452181
 H         -5.0191052827        1.4167321044        1.9010756443
 H         -4.0285861067        1.8417596669        0.7884584325
 O         -1.4983615067       -0.1798754411        6.2205135958
 H         -2.3967851892       -0.4959467939        6.0542507615
 H         -1.1035083215       -0.0505987651        5.3328409941
 O         -0.5341434456       -0.3490674204       -4.4626215012
 H         -0.1282549386       -0.9623443061       -5.1046431097
 H         -0.0035706578        0.4663053727       -4.4295518597
 O          3.2545851088        1.6451163272       -5.1880022044
 H          3.1482211434        1.8412666170       -4.2379572219
 H          4.2038533616        1.5813119714       -5.3383269457
 O          8.2487496735       -0.1248110953       -3.0666258819
 H          9.1067779278       -0.3967302572       -2.7409278460
 H          7.8950462160        0.4916497694       -2.3743628748
 O         -6.5562898535       -0.2684224171        4.1064442490
 H         -6.4771508203       -0.8357942165        3.3143920768
 H         -5.7642013567       -0.4541140776        4.6352176517
 O         -5.6977000534        0.3106234716       -3.2557946358
 H         -5.4956087307       -0.3462446902       -3.9503246429
 H         -5.0418895972        0.1717835033       -2.5418285260
 O         -2.0239108280       -3.7414970846        3.0827085999
 H         -2.1761019729       -4.3910110595        2.3759802455
 H         -2.9039450082       -3.5164652178        3.4298372234
 O          3.4597584441        5.1161833219       -2.1343263446
 H          3.7922533819        5.8808036692       -2.6025927637
 H          3.6063860971        5.2779156154       -1.1890641999
 O          2.0104703568        3.1608596952        2.8483881931
 H          1.7029941432        3.7309435065        2.1059122604
 H          1.2817683353        3.2021770176        3.4895665071
 O         -1.8354131967        2.5492088218        6.2543810826
 H         -1.6604672312        1.6160518805        6.4807986923
 H         -2.6613730093        2.5418507704        5.7498292984
 O         -0.6830123170        3.8494445300       -0.6875093973
 H         -1.1063894742        3.0603560419       -1.0766297196
 H         -1.3462189129        4.5530690338       -0.7439520821
 O         -2.8218268851        5.5098310026       -0.9283926942
 H         -2.9209973689        5.7441618414        0.0158531787
 H         -3.6891858381        5.6796398220       -1.3680581055
 O         -7.9735954278       -1.0919340918       -3.4007736057
 H         -7.2186729986       -0.4836652118       -3.2156546015
 H         -7.8377488582       -1.3340542264       -4.3231353229
 O         -3.3881659614       -1.6116420824       -3.3222199788
 H         -3.3642410625       -0.7898644709       -3.8317622925
 H         -2.9213421129       -2.2711991732       -3.8619907927
 O          5.5580132150       -3.8461302029        2.4817572694
 H          5.0936956268       -3.2616534270        1.8429774503
 H          4.8631627574       -4.4121708760        2.8346613059
 O          1.0237231489        4.9980897864        1.1957140771
 H          0.4254685691        5.4186155082        1.8537633354
 H          0.4608064428        4.5686238348        0.5346870464
 O          3.0986443131       -4.3971467276       -2.5041661849
 H          2.9815136869       -3.4157790684       -2.5265806153
 H          2.4353130275       -4.7129004515       -3.1352470684
 O         -7.2428405119       -3.8158112361        0.5596659183
 H         -7.2568471315       -3.8247029291       -0.4071447829
 H         -6.5688128365       -4.4539250101        0.8517515517
 O         -4.6181764899        2.8376015513       -3.0867513823
 H         -5.0993404346        2.0148242505       -3.2897051173
 H         -3.8766192276        2.8988181691       -3.7005064859
 O          0.5581986687        0.5343355953       -1.8433379686
 H          0.5761423930        0.5536703094       -0.8841841677
 H         -0.3087990254        0.9263777683       -2.0692418660
 O         -0.4792333339        0.8663828709        1.0191561524
 H          0.3874079221        1.1459230555        1.3230079528
 H         -0.5533223139       -0.0821246184        1.1924238997
 O          0.5871348475        6.9712525579       -1.4527001307
 H          0.6597309769        6.1608508606       -1.9647108816
 H         -0.1863300704        6.8923283015       -0.8925583374
