  609
      -1033.96802809
 O         -7.9431908353        1.3518056556       -5.6817266143
 H         -8.8501143014        1.1933946174       -5.3515842599
 H         -7.7499383148        2.2807657915       -5.5087325140
 O          1.7718547496        4.3469740929       -2.7598632238
 H          1.1692134188        3.8148954248       -3.3078080845
 H          1.5991526823        5.2763968491       -2.9589691129
 O         -2.0051216483        0.1563045903       -4.5920808319
 H         -1.0487887239        0.1324085574       -4.4154000447
 H         -2.1738838376       -0.5209992073       -5.2828160902
 O          4.5580903921        4.7544271750        0.2077253793
 H          3.6085109726        4.8011566782        0.3929024993
 H          4.6192996443        4.5550208454       -0.7621152966
 O          2.6865270382        2.4973885881       -0.8398957097
 H          1.8246636812        2.0693869676       -0.6976396465
 H          2.5171184372        3.4324567624       -0.6335420146
 O         -1.2921546107       -7.3374420754        3.4526834470
 H         -2.0748965537       -6.7511820190        3.4209912311
 H         -0.7181449154       -6.9965232929        4.1405757489
 O          0.1463957695       -0.5737064996       -7.1234857706
 H          0.0886794825        0.3029481677       -7.5241659042
 H         -0.7593922175       -0.9195962774       -7.0381191523
 O         -6.8255846439        3.7937440727       -4.5956240944
 H         -6.9053439078        4.5340900133       -3.9747667672
 H         -6.2788362019        4.1162580630       -5.3515393993
 O          7.5902853070        0.5849807154       -1.8771022575
 H          8.1376061752        1.0025888203       -2.5640354156
 H          6.6986128032        0.5533937344       -2.2641681825
 O          1.3973224092       -6.1165576867        5.9641937932
 H          1.9977241394       -5.4362434479        6.2990637029
 H          1.7986400737       -6.4020181650        5.1182010198
 O          1.9171270594       -3.1672397999        3.8363760899
 H          2.3001055180       -3.6288741967        4.5960297647
 H          2.5737340098       -3.2059381885        3.1186895368
 O          3.6913460358       -0.3259684031       -1.4170824845
 H          3.0635348669       -0.7186496912       -2.0666051205
 H          4.4496698198       -0.0286357564       -1.9310182618
 O         -2.3807512286       -1.9756804291        5.3753995551
 H         -2.9070967091       -1.3385134258        5.9020378762
 H         -1.4909523935       -1.9960456356        5.7456644543
 O         -0.0022765553        2.9186083210       -4.1645192468
 H         -0.8956979737        2.8258709874       -3.7691881868
 H          0.2743841743        2.0255808225       -4.4086076514
 O          1.3169360058       -1.3211162351        1.6368433613
 H          2.0885094866       -0.7285146246        1.5808120845
 H          1.4925668920       -2.1202771268        1.1157143407
 O         -2.7926652298        6.6416676898        4.2029457123
 H         -2.0569413595        7.2285235904        4.0111296504
 H         -2.6696919249        5.8540147957        3.6206794365
 O         -3.8633349686       -0.2418885553        6.7538110242
 H         -4.4755747527        0.3565662671        6.2867355248
 H         -3.0621665784        0.2986584581        6.9024022050
 O          7.7238987433        1.1877688001        2.8272762276
 H          8.6633024511        1.3800692083        3.0034211599
 H          7.5723319404        1.5403206921        1.9273820886
 O         -2.6987305224        4.4267890505        2.7509363625
 H         -2.8158652523        3.7710719867        3.4772372732
 H         -1.8139958312        4.2909259052        2.3926426735
 O          3.2478133195        0.4299483891        1.1068064470
 H          3.4477197829        0.3024633129        0.1610367486
 H          2.9324738957        1.3438649359        1.2418828559
 O          2.8773418010        1.7692568210       -3.4044102780
 H          2.7366429031        2.0418808096       -2.4713906303
 H          2.1396131975        1.2257800844       -3.7075595599
 O         -0.7841921442        3.7266862426        6.7333055560
 H         -0.6520274988        4.1228847294        5.8478929317
 H          0.0952260000        3.5150978393        7.0582534397
 O         -1.2760444083        1.6982416735        1.3684049524
 H         -1.2827877274        1.2997499844        2.2701593944
 H         -0.9160637333        2.5959090902        1.5068221508
 O         -4.7912802725        3.4156227405        1.5086113896
 H         -4.4768437545        2.5224274873        1.7255224485
 H         -4.0654086289        3.9990556223        1.8056480848
 O         -3.0777542558        4.0979952146       -0.6084966194
 H         -2.1171466472        4.2101362656       -0.4874595715
 H         -3.3070960176        3.1664232149       -0.4204064365
 O         -3.3352353220        5.0045010590        6.3038804018
 H         -3.1251931159        5.7106950994        5.6608688832
 H         -2.5443547587        4.8654747690        6.8350454191
 O         -5.9480286456        3.0732444202       -0.9264936828
 H         -6.5239203192        2.3120018103       -0.7120456945
 H         -5.5012372171        3.3021848553       -0.0933155911
 O         -5.3882594815        1.5221493939        5.4030367914
 H         -5.7172907373        2.3809888919        5.7397398814
 H         -5.8338070311        1.3800832650        4.5377881224
 O         -0.1659719951       -2.2813261074       -4.3037517106
 H         -0.1726530917       -2.8380147668       -5.0933580866
 H          0.2996682572       -2.8392961896       -3.6406518930
 O         -5.0023585300        2.2907345551       -3.3019196164
 H         -5.5771895465        2.8959553252       -3.8134865659
 H         -5.2343936141        2.4703429463       -2.3684476360
 O          2.3938936554        7.4283292211        1.5349002528
 H          1.9011749966        7.5468050016        0.7110944991
 H          3.3198300844        7.5903043431        1.2953590667
 O          5.3617088840        0.8160846828       -3.4164196342
 H          5.6208609862        0.8448954607       -4.3455997364
 H          4.4820232058        1.2412706996       -3.3893548812
 O          2.2437876745       -1.5514922528       -3.1827869732
 H          2.6635844244       -2.4215394784       -3.0230527426
 H          2.6219723893       -1.2612501782       -4.0387597947
 O          8.0538571593        2.0681060388        0.3308796254
 H          9.0270686825        1.9770821907        0.3114956736
 H          7.7264584660        1.5831663671       -0.4520912099
 O          9.3207928952        4.0949438053       -2.7384441130
 H          9.6278679519        3.3828836934       -3.3059961371
 H          8.4782186371        3.7686090977       -2.3553052774
 O         -3.4961057879       -0.1911469295       -2.4247581322
 H         -3.0563140885        0.1490075711       -3.2217480298
 H         -3.4668148632        0.5007485333       -1.7427275128
 O         -3.1144489846        2.7927138788        4.7783515574
 H         -3.9118396914        2.2678423941        5.0002056229
 H         -3.1244945894        3.5355805003        5.4106083096
 O         11.2172898334       -0.7526063377        0.7418188416
 H         11.3846173336        0.1948994759        0.6494584056
 H         11.0500040710       -0.9267984894        1.6866734833
 O          1.3505082835        1.6673348439        4.1607738936
 H          1.7743223485        0.7763601337        4.2197753116
 H          1.6397476340        2.1156200549        4.9750387395
 O          1.2961452847       -3.5469389610        0.0753270020
 H          0.3922136886       -3.5527545631       -0.2964992814
 H          1.2440108260       -4.1433216259        0.8693520449
 O         -0.1370869558        7.3547998759        3.1176335595
 H         -0.0846253539        6.5486787502        3.6720145283
 H          0.7597500365        7.5504093576        2.8212338421
 O          3.2759147150       -1.5635719992        7.4677706015
 H          2.5164365432       -0.9708243029        7.5019095559
 H          3.9466930298       -1.1101418061        6.9230188407
 O          8.2258713361        4.7486905707        0.5893556597
 H          7.6736709570        5.2743059170       -0.0190542908
 H          8.0215979844        3.8089005339        0.3959595645
 O          4.3969781232        4.2589769031       -2.3737979636
 H          3.4298799932        4.1939770552       -2.4834136935
 H          4.6551369343        5.0443936979       -2.8835925940
 O          3.2415428053       -0.9726571246       -5.5689846809
 H          4.1767581698       -1.2463727062       -5.4613193236
 H          2.8105088914       -1.6340495978       -6.1417490523
 O          4.8888401973        2.9305715276        6.0909628257
 H          4.5497350822        2.6083901796        5.2107672244
 H          4.9746137316        3.8928264562        6.0265471464
 O         -1.5476963837        1.1134101187        6.5131619774
 H         -1.5269697197        1.0374520363        5.5301553279
 H         -1.4623969390        2.0694350475        6.6784682126
 O          6.1418888295       -4.8153053736       -2.1349034183
 H          6.9762716434       -5.2923054601       -1.9175354948
 H          5.9080412240       -4.3250881596       -1.3318937795
 O          5.3347357984        1.8032205989       -0.4774394577
 H          5.5056349697        2.1671342737        0.4101554103
 H          4.4190669409        2.0459300859       -0.6965848424
 O         -2.4654706899       -8.2933357081       -2.6831593501
 H         -3.2642103345       -7.9542299884       -3.1264862005
 H         -2.8273609006       -8.6810828726       -1.8581862145
 O         -5.1162764097        4.3705932611       -6.5256052602
 H         -4.2702892381        4.6885990264       -6.1671345888
 H         -4.9612370575        3.4673099401       -6.8413625611
 O          1.8818463417        5.0289414011       -0.0576967097
 H          1.0272359158        4.7764592950       -0.4579192677
 H          2.2513732044        5.7444579799       -0.6022356010
 O          0.0530396900        4.7627301045       -6.1329803773
 H          0.0466343717        4.1000607372       -5.4078829627
 H         -0.8353406618        5.1284741485       -6.1391848199
 O         -7.2883709494        0.8784450480       -0.3077944718
 H         -8.0025437753        1.0057068099        0.3340862880
 H         -7.6440161331        0.4230394758       -1.0999271447
 O         -6.3803321476        1.2911283117        2.9428500001
 H         -5.4589652659        1.1320161855        2.6682654312
 H         -6.9058608199        0.5435380326        2.6220494293
 O         -1.8431976220       -5.7395881224       -2.4588070793
 H         -2.0012581211       -6.7029509822       -2.3478598291
 H         -2.6919414448       -5.2985184676       -2.2299732777
 O         -4.2137189091        5.0788892593       -2.9307439747
 H         -3.8443427506        4.7940566066       -2.0806057519
 H         -5.1276308979        5.3358499698       -2.7501966735
 O         -4.6509094810        1.6438154717       -6.9746891883
 H         -5.0029316620        1.1973134167       -6.1730313422
 H         -4.8682971256        1.0597789757       -7.7023517400
 O         -6.0360151107        4.0542954144        5.8607468509
 H         -6.2019490200        4.2966040563        4.9295661266
 H         -5.2215764491        4.4998711378        6.1270826378
 O         -2.7261813902        4.8239000921       -5.1143845669
 H         -2.5194951890        3.8826544976       -5.2908986420
 H         -3.3486333288        4.8479946931       -4.3581854298
 O         -2.2245753098        2.3285844845       -6.0300745092
 H         -2.1739295665        1.6012481691       -5.3659860062
 H         -3.0330927103        2.1419592600       -6.5351876585
 O         -9.0956557757        1.6527103217        1.6386475737
 H        -10.0653435863        1.7032315219        1.7871904369
 H         -8.6767791026        1.8071416493        2.4915321976
 O          4.1438012275        1.9221734129        3.8277072590
 H          4.6249289564        2.3453289647        3.0870697902
 H          4.3743587308        0.9832404983        3.7794124765
 O         -8.6755025274        2.4256921672       -2.8394265693
 H         -8.7551242782        2.8503628352       -1.9619224168
 H         -8.0895451246        2.9778749312       -3.3678202942
 O          2.4417267529       -0.6483010353        4.6176407144
 H          2.2748166305       -1.5316064670        4.2341828158
 H          3.3746677102       -0.6033450132        4.8657620511
 O          0.9150296829        0.2361260267        7.1738904879
 H         -0.0135095268        0.5273741032        7.0511693935
 H          1.4515729245        0.9998756785        6.9319118049
 O          5.0185875513        5.7373764128        5.9123636058
 H          5.2442029908        5.9791319148        4.9907902865
 H          5.6806176866        6.1384043226        6.4739278347
 O         -8.1407094797       -0.1688020010       -2.6226354242
 H         -9.0289065739       -0.5753679075       -2.5530098947
 H         -8.2966187945        0.7709463754       -2.8563456374
 O          2.4163706956        5.9717103744       -5.4677040081
 H          1.5913090708        5.6736977463       -5.8887597772
 H          2.9088244239        5.1399235908       -5.3087321239
 O          3.3056969561        6.9208728886       -1.4577742644
 H          2.7563785414        7.1380625955       -2.2189040508
 H          4.1958060410        6.8119377918       -1.8071929677
 O         -0.1000505104        3.9931000144        1.9283022578
 H         -0.2032681795        4.7633607223        1.3280064898
 H          0.7999243775        3.6028229430        1.7741678575
 O          0.6141824098        7.8572633128       -0.7613026944
 H          0.8747592807        7.6060644850       -1.6610494613
 H         -0.1001362608        8.4892615578       -0.8578331913
 O         -0.8584513903        6.2440076457        0.7924867633
 H         -0.7900312225        6.7365271688        1.6350562942
 H         -0.1968219002        6.6576186313        0.2085000411
 O         -4.8170054615        6.1282388486        0.0270467765
 H         -4.7828036864        6.4376879104        0.9507045976
 H         -4.2517512265        5.3387386445       -0.0250529671
 O         -3.6970563443       -2.1115272483       -0.5553700912
 H         -2.8067479631       -1.7682546927       -0.3109068152
 H         -4.3322839632       -1.4993154159       -0.1547279731
 O          3.7947571353       -3.6637089040       -3.0704837560
 H          3.7966002074       -3.9865611095       -3.9860892952
 H          3.4652071136       -4.3771899013       -2.5026179466
 O         -4.7152145088       -6.9090187382       -3.2677527780
 H         -5.0158460437       -6.0988745555       -3.6903627755
 H         -5.1820703735       -6.9334969551       -2.4136437325
 O          4.9471902819       -0.5590814566        2.8141602429
 H          4.3563363996       -0.1513750447        2.1416903310
 H          5.8066098309       -0.6591818687        2.3849200213
 O          7.0200908129        1.4598856961        5.4293550436
 H          6.9810591595        1.4647609152        4.4542314504
 H          6.3311124914        2.0776634150        5.7566274018
 O         -3.1449021423       -3.7136415233       -5.2065808606
 H         -2.8744102203       -3.3918863309       -4.3092569128
 H         -2.7110415887       -4.5742550532       -5.3209352655
 O          6.4553810653       -3.5637598240        0.4469031603
 H          7.4051551764       -3.6061896887        0.2135154472
 H          6.2148539189       -2.6258127580        0.4875819271
 O         -2.3580152900        2.6258786218       -3.0006334495
 H         -2.4290449562        3.1986337991       -2.2297919102
 H         -3.2804483879        2.4688468365       -3.2743507112
 O          3.6725651064        3.5939881436       -5.1488448123
 H          3.3472682955        3.1247444974       -4.3501665458
 H          3.4418643648        2.9789402116       -5.8690524650
 O         -2.3868628101       -1.5591243897       -6.5880039363
 H         -2.5307489955       -2.4219460823       -6.1435257662
 H         -3.2759405431       -1.3367206779       -6.9219617867
 O          8.4815685637       -2.7446146070       -2.7287771968
 H          9.3009861745       -2.5135663852       -2.2620293693
 H          8.5143501714       -3.6844410255       -2.9198459226
 O          8.3707958657       -5.9372175807       -1.3012293890
 H          7.9753544841       -6.5212252016       -0.6356920933
 H          8.7856625517       -5.2116604588       -0.8040829276
 O          8.4316905495       -0.8839902426       -4.8077294893
 H          7.5271310226       -1.0666826332       -5.1122413410
 H          8.5662202926       -1.5077215774       -4.0754823030
 O         -3.4375694039       -5.6531706372        3.1943893775
 H         -2.9930445005       -4.9088143302        2.7249830825
 H         -3.5917284754       -5.2933879145        4.0874450356
 O          0.5609169071       -4.2531680353       -2.7216179155
 H          1.1949374509       -4.8592929734       -3.1411280046
 H         -0.2667108383       -4.7472207441       -2.6542405672
 O          5.7058496185        0.9640669343       -6.2492817787
 H          4.8234694488        1.1496346154       -6.5965726199
 H          5.8042607832        0.0044666276       -6.2272024406
 O         -7.3680118821        5.3841256350        0.6578686535
 H         -6.4778632809        5.6695678663        0.3694839848
 H         -7.2763860070        5.1480233815        1.5900491634
 O         -5.4675586329       -1.6565294254        3.4117734723
 H         -5.4990689460       -1.9975787985        4.3254444699
 H         -4.5069063485       -1.4958390687        3.2338364275
 O         -1.1254476179        0.8781259559        3.8731401283
 H         -0.9338159460       -0.0868232368        3.7719029818
 H         -0.2350100145        1.2806339792        3.9914095951
 O         -1.7979453147       -6.0432516510       -5.0801062535
 H         -1.9798760069       -6.9700446774       -5.2316742718
 H         -1.7567911393       -5.9306424303       -4.0942459599
 O         -8.3841200936       -5.3154719522        1.4318975426
 H         -8.3534944976       -5.1497969797        0.4762781015
 H         -7.5868670603       -5.8385098308        1.6202944815
 O        -10.3406796456        0.9467085320       -4.5196167384
 H        -10.5846124474        0.1273416759       -4.0698014486
 H        -10.1586270263        1.5973809824       -3.8266487759
 O         -3.1134041255       -6.3270150025        0.3095544213
 H         -3.5812380679       -5.7090698758       -0.2883627047
 H         -3.3938477962       -6.1279310121        1.2084790687
 O         -7.8944602905       -1.6978834769       -4.8706011148
 H         -8.4168770395       -1.2264198237       -5.5197786930
 H         -7.9194276779       -1.1541899835       -4.0583464061
 O          3.0642814812       -3.8868508218        6.1948509878
 H          3.9185316471       -4.1606852949        5.8450869560
 H          3.2162060765       -3.0867641200        6.7504967377
 O          0.7113948681        0.2743652532       -4.5968558211
 H          0.7837932316       -0.5936812332       -4.1593406345
 H          0.6613405174        0.0506958926       -5.5472666363
 O         -6.8375876114       -2.3606832266       -0.7710175087
 H         -6.3756787895       -2.0654015121       -1.5867485703
 H         -7.5922331938       -1.7648427967       -0.6474796763
 O        -12.0804490662       -0.8990342081        1.6597604321
 H        -11.3918413289       -0.9573743969        2.3413305967
 H        -12.3134057361       -1.8087182878        1.4620788530
 O         -2.4999123591        7.1230426414       -1.2410104397
 H         -2.0466990579        6.7679028949       -0.4561567876
 H         -3.4404366634        6.9591138247       -1.0817838847
 O         -6.6771016143        4.1955523546        3.1922093229
 H         -5.9930023879        3.8171873438        2.5870193956
 H         -7.2671996121        3.4554593039        3.3844863839
 O          0.3689656086       -2.2378006880        6.2302241174
 H          0.6009112766       -1.3538713831        6.5772657879
 H          1.1993909645       -2.7228808856        6.1925340191
 O        -10.4096396925       -3.3467196155       -0.7943134253
 H        -10.6851543570       -3.5638125991        0.1134167635
 H         -9.6708705998       -3.9499139415       -1.0104678892
 O         -3.7188854957        1.1626403912        2.5820347237
 H         -3.4085395912        0.2387347197        2.5345304955
 H         -3.2205481731        1.5607826960        3.3055437411
 O         -0.8949077426       -4.7968647689        6.1336156121
 H         -0.1140468410       -5.3932452887        6.1364168332
 H         -0.5616759105       -3.9415637751        6.4315800971
 O          0.1803612720        2.1827968951       -7.2502755185
 H         -0.6989483492        2.1983885548       -6.8124182506
 H          0.4092913151        3.1187516796       -7.2997229210
 O          1.5417609862       -7.7602830252       -0.5702049124
 H          2.2138143864       -7.9809427344        0.1098901425
 H          0.7240130724       -7.5922710062       -0.0646744611
 O         -6.8899877486        5.1875090593       -2.2718664502
 H         -6.6304461565        4.4190243279       -1.7124352962
 H         -7.3067603048        5.8130130180       -1.6788604055
 O        -11.2464969209        0.4023120198       -0.6356050308
 H        -11.4187654804        1.3760869382       -0.6388398245
 H        -11.7384154371        0.0238789011        0.1093242257
 O         -0.4563604583        4.1247347550       -1.0703716852
 H         -0.2222687694        3.2222633816       -1.3276078170
 H         -0.5949860153        4.6475211714       -1.8873690405
 O          4.8815707364       -4.7054273876        4.0354267917
 H          5.6589300967       -5.1267562759        3.6241602277
 H          4.5314120140       -4.1092634694        3.3305620622
 O          6.8496174282        3.3215087359       -2.0870227886
 H          6.4642641351        3.2346754122       -2.9701894963
 H          6.2910133318        2.7577310856       -1.5054617782
 O          5.1716001220        7.2296617852        0.9035014711
 H          5.7774874816        7.6111748648        0.2687490972
 H          4.9881276778        6.3207355896        0.5540535224
 O         10.9702819995       -1.9734147044       -1.7126195611
 H         11.1295116800       -1.6864068566       -0.7944792069
 H         11.7084953280       -2.5285154340       -1.9613567592
 O         -5.0453002511       -1.2796254028       -6.9743682262
 H         -5.2980812882       -0.8418766931       -6.1410553034
 H         -5.5259527200       -2.1072112394       -6.9881143560
 O         -5.5299367550       -2.4202229945        6.0021818531
 H         -4.9952098366       -1.7530355485        6.4554453188
 H         -5.0000850791       -3.2331618601        6.0107953633
 O         -1.2712456570       -3.8981504654       -0.5677069394
 H         -1.6944576326       -3.4209348618       -1.3072751060
 H         -1.3255454036       -4.8330850049       -0.8003342974
 O         -9.1546333589       -1.1313804339       -0.0893802230
 H         -9.8060751644       -0.4170237449       -0.2298619315
 H         -9.6353328466       -1.9596438658       -0.3119175306
 O          5.9606480284       -0.8459674524        0.1147076863
 H          5.7608905997        0.0979704013        0.0239682529
 H          5.9635491878       -1.1742556223       -0.7990398479
 O         -5.5214057162       -3.3872176776        1.3240538128
 H         -5.6215962037       -2.7994801930        2.0967548947
 H         -5.9545341620       -2.9660764783        0.5578648058
 O          0.3405885196       -4.5528067808       -5.8142998044
 H         -0.4714161537       -5.0832070322       -5.7621959207
 H          0.9730889736       -5.0363153143       -5.2603619578
 O          3.6916291791       -4.4523659677       -5.7089726320
 H          3.2182832186       -3.8909887255       -6.3348329258
 H          3.1414421806       -5.2283291283       -5.5481597040
 O        -10.6390968912       -1.1872740129       -2.6947357815
 H        -10.7055921742       -2.0846535735       -2.3469852949
 H        -11.0453552612       -0.6067843650       -2.0208701863
 O         -5.5682796315       -1.6836267810       -2.9721691950
 H         -4.7830971872       -1.1956928371       -2.6368491803
 H         -5.9009841652       -1.1276362820       -3.6952103710
 O          4.9585043361        6.5269010508       -3.7660505587
 H          5.8739014176        6.3762083729       -4.0546439569
 H          4.4025675444        6.5705711788       -4.5485976330
 O         -3.4268692953        1.4612867096       -0.2394701207
 H         -4.0844522544        0.8847210642        0.1848563727
 H         -2.6650530526        1.4790948088        0.3694807709
 O         -0.3225562240       -1.5877825972        3.6321913939
 H          0.1690938091       -1.7962283079        4.4419751146
 H          0.3471340380       -1.5068236887        2.9163535679
 O          2.9032605016        1.4917302523       -6.6787609591
 H          1.9863105776        1.6712791048       -6.9305562698
 H          2.8934928568        0.6396584093       -6.2009282878
 O         -8.9261489596        3.4879166160       -0.3695773148
 H         -8.9000102658        2.8453386265        0.3628364391
 H         -8.3827920790        4.2461548293       -0.0702520722
 O         -5.6995353976        0.2885168672       -4.8499972325
 H         -5.3839669770        0.9192387220       -4.1635878160
 H         -6.6017069858        0.5930269896       -5.1070882433
 O         -8.1112004906       -4.2784935805       -3.8810463381
 H         -7.1650454055       -4.4487209304       -4.0151020243
 H         -8.2353514850       -3.3772413290       -4.2234701943
 O          9.0973747113        3.2496699834        4.9038868933
 H          9.7472693695        2.7599494216        4.3832511990
 H          8.4976424150        2.5886192275        5.2912595234
 O         -0.5897155456       -7.0511786235        0.9073670865
 H         -0.7851383908       -7.3782889282        1.8119838511
 H         -1.4597961764       -6.7951599960        0.5550426278
 O         -1.1224677673        5.7658609066       -3.0959644420
 H         -1.7182310384        6.2996822525       -2.5229230411
 H         -1.6576428107        5.4726505932       -3.8570168090
 O         10.7242209972        4.4581364773       -0.3953104622
 H         10.4293615655        4.4307431315       -1.3221408214
 H          9.9262942495        4.7336470155        0.0964465299
 O          2.1873117007        2.7674785094        1.9059909185
 H          1.9786621109        2.3197822338        2.7591223458
 H          2.7493360996        3.5240454716        2.1397959894
 O          3.8682739331       -2.8018250554       -0.3521230166
 H          3.9442513749       -1.8757311864       -0.6525472550
 H          2.9311836798       -3.0273758561       -0.4163405052
 O          4.0469261055       -2.9690671409        2.2552764775
 H          4.0227188470       -2.9340074540        1.2707192084
 H          4.3715184210       -2.0851185405        2.5456328225
 O          9.1193827236       -3.7198912911        0.0920226864
 H          9.3441883203       -3.7503090246        1.0466561432
 H          9.0849887990       -2.7685852763       -0.1326586389
 O          7.5877629632       -1.4052920382        2.3200756349
 H          7.7632615367       -1.3162296268        1.3599065952
 H          7.7462796128       -0.5058799310        2.6790442990
 O          5.5762608874        6.1629129522        3.3315054250
 H          5.5825635908        6.7262576104        2.5341862583
 H          6.3349023085        5.5428552963        3.2518350263
 O         -8.3493002170        2.1716684620        4.5971800958
 H         -8.0229646945        1.2638120004        4.7724235041
 H         -8.0532135506        2.7172139456        5.3295055150
 O         -0.1016285218        4.9732704423        4.4203041956
 H          0.8031387182        5.0542988646        4.7623547529
 H         -0.0465094636        4.4752291364        3.5764267746
 O         10.7382601921        1.9111419462        0.1747369522
 H         10.7883669068        1.5379798255       -0.7304253574
 H         10.8799487393        2.8859087176        0.0344477338
 O          6.4789841430       -2.5206311578        4.5976721487
 H          6.6931821550       -2.2355544377        3.6954084274
 H          5.9710612834       -3.3461580793        4.5189457733
 O          2.4408828739        5.1129859504        5.2333140146
 H          3.1886158304        5.5154736652        5.6932377683
 H          2.7353094033        5.0348222033        4.2896840521
 O         -2.8410609726       -3.6348484816        1.5713165705
 H         -2.2198423808       -3.7000180549        0.8201747782
 H         -3.7385134396       -3.5290657238        1.2040231188
 O          1.9929199879       -6.0783182336       -4.1787444488
 H          2.8519682686       -6.3063053737       -3.7624608844
 H          1.3902713787       -6.8029952994       -3.9227311836
 O          1.8661017672       -2.7200522248       -7.1012523534
 H          1.2617483081       -3.3969349590       -6.7495285605
 H          1.2901617613       -1.9766714858       -7.3424088948
 O         -7.8056115787       -0.9156709414        2.1435937866
 H         -8.2799700475       -0.9849018311        1.2869686688
 H         -7.6473928908       -1.8266926506        2.4571056706
 O        -10.0234582298       -1.1885930933        3.5467704957
 H         -9.2147161037       -0.9044828871        3.0495483140
 H         -9.6756296541       -1.5816079397        4.3507502621
 O          8.6545316033       -0.8175937725        5.1959275314
 H          8.0029826617       -1.5304069295        5.1605157739
 H          8.1653799774       -0.0150553945        5.4177456045
 O         -3.5767310849       -4.3492726009        5.5747631316
 H         -2.9072628064       -4.8466420089        6.0592759263
 H         -3.1139465292       -3.5079501121        5.3559139406
 O         -7.6193412167       -0.4522985871        5.0389259896
 H         -7.0595726274       -0.7249400185        4.2973537926
 H         -7.2006349198       -0.8202460848        5.8195173380
 O         -2.3487696189       -2.7515929749       -2.8807192949
 H         -1.5600590487       -2.4108844108       -3.3523244672
 H         -2.8417350648       -1.9855516484       -2.5442480089
 O          2.7048332306       -6.4341564353        3.6178583379
 H          2.1065505448       -5.9042595874        3.0416460068
 H          3.4812894323       -5.8792641618        3.8009297226
 O        -11.6062512439        3.0034858335       -0.3988805356
 H        -11.7966500457        2.9834415526        0.5473758457
 H        -10.7025863674        3.3580497266       -0.4883367940
 O         -2.9479162513       -1.3501827177        2.8177498660
 H         -2.5297422960       -1.5199697524        3.6803978545
 H         -2.7785850442       -2.1624900310        2.2841275382
 O          4.6025824243       -5.5917657624        0.3884049151
 H          4.9657159633       -4.7072585380        0.5305815821
 H          3.9027831583       -5.4855870467       -0.3011610357
 O          5.0135283862       -0.5365100589        5.6575557385
 H          5.5111860736       -1.2821479409        5.2630710943
 H          5.6562521253        0.1793694523        5.7574855400
 O          9.2262860004       -3.5110073739        2.7480188069
 H          8.6224029770       -4.2386356450        2.9599528451
 H          8.6531134151       -2.7151177942        2.6980868809
 O         -0.9655450685       -4.2119359295        3.4820255966
 H         -0.8136601650       -3.2497701004        3.4566611625
 H         -0.9598986106       -4.4607980243        4.4233139417
 O          5.8620084169       -1.8845740370       -2.4381946306
 H          5.2041500149       -2.6014692178       -2.4849906217
 H          6.7462713013       -2.2809557444       -2.4785792241
 O          2.1668901209        2.7777046702        6.5032458704
 H          2.1903920518        3.6755401631        6.1096168263
 H          3.1092355237        2.5743756318        6.6317864762
 O          6.3073453800        3.2394697546       -4.8795601111
 H          5.3582494897        3.5056860704       -4.8759298209
 H          6.3304320366        2.5406061934       -5.5477058902
 O          0.9623666807       -5.1938616624        2.0357972577
 H          0.2947199078       -4.7691658477        2.6399022612
 H          0.4574782802       -5.8942096698        1.5759934373
 O          7.5185977880        5.6306035136       -4.2502679223
 H          8.3000865034        5.3313706905       -3.7590081868
 H          7.1457177750        4.8169588985       -4.6290546053
 O         -7.8625068871       -3.3617679342        3.2032471566
 H         -7.2238102315       -3.6854765169        3.8379968666
 H         -8.0050952270       -4.0714345865        2.5426124600
 O         -4.0632322608       -4.5672229267       -1.4589254864
 H         -4.6639290739       -4.5209102943       -2.2187546066
 H         -3.9591135313       -3.6449182318       -1.1371846075
 O         -5.7648656407       -5.9735128581        1.7489567050
 H         -5.6782028298       -5.0111466857        1.5562607882
 H         -5.0791658201       -6.1474376711        2.4112691974
 O        -11.7149678492        1.8780460499        2.1820720550
 H        -11.5686775046        1.8113341492        3.1550156037
 H        -12.1951241547        1.0746362043        1.9536699809
 O         -3.9265247952       -8.7817148066       -0.4982157224
 H         -3.6220640594       -7.9510699003       -0.0850984898
 H         -4.8418601703       -8.6194804304       -0.7411711122
 O        -10.6519543909       -3.5862386011        1.9125306297
 H        -10.0524690750       -4.3392842432        1.9761452588
 H        -10.2955525699       -2.9084991325        2.5048361944
 O        -10.9249276454        1.2427384462        4.6120732305
 H        -10.0751442616        1.7081852804        4.6993193467
 H        -10.6937161754        0.3352028537        4.3535825574
 O         -6.1260446463       -6.7240394869       -0.9016331243
 H         -6.8276834628       -6.0887727782       -1.1115814333
 H         -5.8972657073       -6.5606036253        0.0284676976
 O         -5.3893446343       -4.1724508217       -3.8386035538
 H         -5.5227757139       -3.2506365894       -3.5142210038
 H         -4.6904338020       -4.0763156608       -4.5131182529
 O         -8.0542828790       -4.6540911666       -1.2616122869
 H         -7.5217284572       -3.8447726968       -1.0655595302
 H         -8.1620938574       -4.6325940087       -2.2424626846
 O          5.5626562737        3.0233629744        1.8970446061
 H          6.3231957463        3.4070360620        2.3736817895
 H          5.1842341727        3.7505191252        1.3564202993
 O         -5.0935052987        6.6440350045        2.6677470085
 H         -5.6749085836        5.9773427986        3.0448650640
 H         -4.3689638774        6.7855196430        3.2957736280
 O          7.4993622086        4.3811062287        3.1164858522
 H          7.9799531346        4.6037541765        2.2954897307
 H          8.1435162372        4.0489330898        3.7822464327
 O          3.4215885763       -7.8593270971        1.3684086007
 H          3.8700810346       -7.0447368418        1.0895611863
 H          3.0760487022       -7.6439823210        2.2510314144
 O          2.6197330441       -5.4505306492       -1.3108552123
 H          2.1800273153       -6.3122626135       -1.1365921434
 H          2.0337225990       -4.7655767645       -0.9311131075
 O         10.7509300730        0.7828788824       -2.2594333422
 H         10.7785295129       -0.1841428555       -2.2693196152
 H         10.2056421655        1.0617501789       -3.0029372488
 O          5.7939164387       -1.5856916880       -5.0925293893
 H          5.7371286868       -1.4211542206       -4.1218054891
 H          6.0045714770       -2.5499534488       -5.1417429133
 O          6.7328329603       -7.1551235572        0.5951326526
 H          6.4037685293       -8.0377769511        0.7648966549
 H          5.9359470437       -6.6001023040        0.4171701208
 O         10.6028659496       -1.1474895588        3.3759244758
 H         10.5686280809       -2.1082319132        3.2949595763
 H          9.9184299184       -0.9577430989        4.0554917313
 O          8.6686554558       -1.1186041377       -0.1261580112
 H          8.2508802768       -0.5597578969       -0.8097114051
 H          9.5308063228       -0.7413646249        0.1037901042
 O          6.3300141550       -4.1487190316       -4.8224016184
 H          6.2488800565       -4.3729768406       -3.8783934758
 H          5.5726446511       -4.5556797302       -5.2588361032
 O          8.7593341061        1.6268652477       -4.0908545749
 H          8.0208750170        2.1563647964       -4.4124411057
 H          8.6652515842        0.7311134734       -4.4983146963
 O         10.3903107100        1.6320104506        2.9778713386
 H         10.7264658102        0.7508793148        3.1873989425
 H         10.6282241381        1.8280628993        2.0603471791
 O          1.2097902769        7.0067148510       -3.3373768144
 H          0.2941963006        6.6597137361       -3.4130499139
 H          1.6595754423        6.8060014893       -4.1885008029
 O          7.0462346524       -5.2022941911        2.5307092260
 H          6.7595869868       -4.5475341910        1.8596616019
 H          7.1168968511       -6.0322722989        2.0364730243
 O          3.1974814732        5.1252014884        2.7258472012
 H          2.7702714869        5.8658018662        2.2504499471
 H          4.1149030873        5.4245145240        2.9036838879
 O         -5.2285864098       -0.3320323432        0.7564564060
 H         -5.5198846520       -0.7272902652        1.5836583197
 H         -6.0214462909        0.0631355913        0.3345088159
 O          6.7162051902        5.9201622213       -1.3503128699
 H          7.1179161807        6.3633968521       -2.0999283755
 H          6.5976861185        4.9893043290       -1.6426004374
 O          0.3577849244       -7.9255512893       -3.1041341606
 H          0.7673488572       -8.0343260845       -2.2332720305
 H         -0.5624147182       -8.2019958650       -3.0095711027
 O          4.3852711591       -6.6833754890       -3.0729533431
 H          4.2130052034       -7.2786140209       -2.3428295308
 H          4.9991422634       -6.0000425951       -2.7351816153
 O         -1.1803056533       -1.2356692379        0.5568239152
 H         -0.2841472332       -1.2034833958        0.9340345827
 H         -1.7409653771       -0.8173916949        1.2139975730
 O          0.1957609156        1.5275864006       -0.9460488993
 H         -0.3387007912        1.4419090109       -0.1412376130
 H          0.0749906588        0.6876903466       -1.4375667912
 O         -0.0312270495       -0.9099558143       -1.8989033981
 H          0.8278908146       -1.2969750990       -2.0985884875
 H         -0.3808745975       -1.3033956181       -1.0927121396
