  114
       -193.42786919
 O         -3.6938288209        1.9448324265        2.7274768053
 H         -2.9062985082        2.4487641112        3.0262887315
 H         -3.4747756849        1.0003405779        2.8371597042
 O          4.2156454022       -2.1714262251       -1.4988340436
 H          3.9118983355       -1.3501408639       -1.0590689470
 H          4.4148049636       -2.7645202132       -0.7356631935
 O         -5.1091980566       -2.0948319037       -2.0668088922
 H         -4.3685961934       -1.6885320879       -2.5564047886
 H         -5.5554513970       -1.3556438636       -1.6383362535
 O         -5.4407743276        0.3373167031       -0.4716902666
 H         -5.7213160976        1.0428075817        0.1566366929
 H         -5.1360594449        0.8273531193       -1.2528549902
 O          2.0616432349        2.5680766850        0.3922244673
 H          2.7764409131        2.6834038062        1.0359683279
 H          2.3714101263        2.8881888060       -0.4695619166
 O          5.6301289537        1.3679148774        0.9076421839
 H          5.1155771178        1.9463770182        1.4943990136
 H          6.1117121445        0.7592271944        1.4703600450
 O          0.5235786040       -4.2902231078       -1.1150348256
 H          0.3338886576       -5.1008867010       -1.5881362350
 H          1.0194775305       -3.7183013385       -1.7479493060
 O          5.5132779427       -0.7023846283       -3.3264392986
 H          6.4095051635       -0.5636860803       -3.0191512682
 H          5.1319994038       -1.4027555891       -2.7525788086
 O          3.8459060804        2.7211365293        2.5231911909
 H          3.4553966704        2.0131698530        3.0821044961
 H          3.7558739169        3.5400641498        3.0118347881
 O         -2.8740304530       -0.5911884013        0.0989519338
 H         -3.0304037908       -1.5364744751       -0.0833917886
 H         -3.7001951161       -0.1380226950       -0.1434360596
 O         -3.8422082725       -3.1486591404        0.0161983317
 H         -4.4806959089       -2.9402157726        0.7090678499
 H         -4.3086674901       -2.9593181088       -0.8313088017
 O         -3.9845571647        1.8591089974       -2.2407304223
 H         -3.6029132075        2.1954377588       -1.4059530020
 H         -3.5612911455        2.3929799884       -2.9454536763
 O         -1.1889562399       -3.3552409730        0.8517236107
 H         -0.6777436612       -3.7054963912        0.1066652661
 H         -2.1202903668       -3.4220339122        0.5995357760
 O         -1.1692684408       -1.3460384008        4.3390043594
 H         -1.9042594371       -1.1976648922        3.6947980571
 H         -1.5813687713       -1.5746437872        5.1718524044
 O         -1.3231247116        3.1302200113        3.1366557675
 H         -1.0531305912        3.4546539535        2.2667860324
 H         -0.7419459816        2.3766897478        3.3362123618
 O          0.6919357561       -2.6042517741        2.6447478412
 H          0.1802245959       -2.2403834890        3.3792288819
 H          0.0166592655       -2.8326944295        1.9774733392
 O          3.5176027106        0.0699899728       -0.1752816158
 H          4.3207634677        0.5500681626        0.1036814548
 H          3.2006876438       -0.3841760739        0.6369745301
 O          2.1057926472       -4.6460118423        1.1624536261
 H          1.6621565390       -4.1106348011        1.8322357885
 H          1.5643133436       -4.5627099168        0.3594552641
 O          1.6666222801       -0.5125195044       -4.3363397969
 H          2.2607894520        0.0359554567       -3.7795209686
 H          2.1457544516       -0.6964471979       -5.1454270382
 O          2.7410907083        0.8048967577        4.0495662493
 H          2.8537329105        0.6993312960        4.9941646093
 H          1.7557782344        0.8564553559        3.8814055913
 O         -3.0952844681       -0.5672241973       -3.0261025632
 H         -2.5011022940       -0.3986365973       -3.7654130601
 H         -3.4597934972        0.3092824229       -2.7813856620
 O         -0.4535114152        3.6315010002        0.4544916850
 H         -0.4640723836        3.8787780239       -0.4879792508
 H          0.4220427251        3.2241433060        0.5815785437
 O         -3.1426319854       -0.7192332600        2.6866833257
 H         -2.8533682692       -0.6491026763        1.7354224754
 H         -4.0037260389       -1.1566175529        2.6217876005
 O         -3.0835891342        2.6962969417        0.1610197916
 H         -3.3250942539        2.3558099384        1.0418673121
 H         -2.2080751699        3.0918845420        0.2642242296
 O          4.4266118555       -3.3050391793        0.8783749613
 H          3.7005469263       -3.9600942300        0.9458520765
 H          4.1158203974       -2.5620872875        1.4154766352
 O         -5.9528513937        2.3170989035        1.2471361302
 H         -5.6865211112        3.0946168004        0.7500735799
 H         -5.2669260553        2.2029941956        1.9302120306
 O         -0.2040677007        3.4687013796       -2.2720745721
 H          0.7565741054        3.5082113400       -2.3752888219
 H         -0.4189672512        2.5279141980       -2.1069382321
 O         -2.3862092638        3.1004197043       -4.0329938825
 H         -1.7113209577        3.5189931344       -3.4793115485
 H         -1.9484029839        2.3280480067       -4.4198698387
 O          0.1962038416        0.8417594155        3.5157013185
 H         -0.2851969705        0.0991207174        3.9263617954
 H          0.2638003010        0.6000604082        2.5653491735
 O         -0.8845682814        0.7451813889       -4.2774283634
 H         -0.0561083234        0.2949484380       -4.4902154090
 H         -0.8788258941        0.8354992644       -3.3087707152
 O          1.9600238598       -2.8842390532       -2.8321892131
 H          1.7344028593       -2.0980633555       -3.3514120965
 H          2.8121970354       -2.6915661459       -2.3924397473
 O          3.4107314807        0.8517461056       -2.7801061108
 H          3.3375107428        0.5715779195       -1.8482250117
 H          4.2381560023        0.4281466340       -3.0963369456
 O          2.6379533463        3.3455292674       -2.2164918399
 H          2.9372170323        2.4703502797       -2.5454911485
 H          3.2276257564        4.0007264275       -2.5890064930
 O         -5.5809861718       -1.5481847980        1.6055476587
 H         -6.4674001170       -1.4891239346        1.9619069148
 H         -5.5509746184       -0.9300161275        0.8548504110
 O          2.9723561625       -1.2122104505        2.1187206866
 H          2.1351029745       -1.7077797657        2.2423237650
 H          2.9939141387       -0.5557141061        2.8293642733
 O         -0.8911903852        0.9179320894       -1.4463874057
 H         -0.4525917908        0.8411396999       -0.5848211497
 H         -1.7356479567        0.4623640080       -1.3132990496
 O          5.9448570600       -1.1580736895        2.4419964625
 H          6.1523531836       -1.9806116814        1.9887208201
 H          5.0183968644       -1.2296240367        2.6924032918
 O          0.5987598414        0.3425313521        0.8816960478
 H          1.2501586070        1.0308170015        0.6369911632
 H          0.8887926805       -0.4929329714        0.5088200636
