  144
       -244.31664955
 O          3.6788658886       -5.1179538225       -0.7341382522
 H          4.2796596189       -4.8145955633       -0.0279270392
 H          3.8270635055       -6.0568187967       -0.8528036411
 O          3.2119157117        1.5056882424        3.9647357589
 H          3.4181861178        1.8492691807        4.8347256443
 H          3.3065067367        0.5307186170        4.0120395813
 O         -1.2647994036        3.7899406233        0.0577604321
 H         -1.3475304980        4.4447493474       -0.6380996543
 H         -0.3223590579        3.6092146844        0.1440167057
 O         -2.8650249184        3.8779174045        2.2151586880
 H         -3.0748583903        2.9227200691        2.2514463917
 H         -2.2406623109        3.9663945462        1.4724803854
 O          3.0376461935       -2.6367489430        1.9447197322
 H          3.8290481148       -3.1862850995        1.8133374377
 H          3.1345350564       -2.1891034289        2.8038071636
 O         -1.2787831983       -4.7492922255        0.9497855883
 H         -0.3511248258       -4.6129433642        0.7018067561
 H         -1.8064077969       -4.5927485981        0.1553030275
 O         -0.0062388696       -1.0664074490        3.2526168660
 H         -0.6309265140       -1.7879677191        3.0335234714
 H         -0.5515428794       -0.4151012422        3.7391808623
 O         -1.9789246537       -2.6121537741        2.3360606271
 H         -2.0368734799       -2.0344171295        1.5542524779
 H         -1.7531915318       -3.5023503753        1.9775714511
 O         -1.7286928141        2.4195974867       -2.5260708994
 H         -1.3813355959        1.7916349138       -3.1933836170
 H         -1.0277942402        3.1011444833       -2.4276777402
 O          1.5197475605        0.0788224748       -2.4369730945
 H          1.3834604064       -0.8026865129       -2.0446557114
 H          2.2711649035       -0.0678285055       -3.0513285672
 O         -1.8187376004        0.7156386368        4.1118654132
 H         -2.3050720646        0.8563260246        3.2779426776
 H         -2.4792703167        0.3210091444        4.7073764636
 O         -4.9122130296        3.6394185200        0.3072295235
 H         -4.5127861264        3.7907802836       -0.5599033348
 H         -4.2755253668        3.9271463821        0.9836516547
 O          1.7255601369        1.1723163711       -5.6231729813
 H          2.3244994889        0.4425635949       -5.4208576734
 H          0.8326087580        0.8943894299       -5.3620289466
 O         -6.2133699872        1.3518740600        0.5893848849
 H         -5.7295335904        2.2094762253        0.5057780926
 H         -6.4938331032        1.3113568344        1.5102921372
 O         -5.5820165091        1.4167936063       -2.1868329820
 H         -6.2400450929        1.5274258344       -1.4914130809
 H         -5.2650732405        2.3083751015       -2.4162107333
 O         -3.3289211298        1.1376125904       -0.7064678407
 H         -4.1707585286        1.1792517865       -1.2008689163
 H         -2.6878098232        1.6459937135       -1.2361902167
 O          3.9150781422       -1.1243725287        4.0259568818
 H          4.7612419652       -0.9798223567        3.5172666293
 H          4.1640526426       -1.4702670249        4.8834120919
 O         -4.0764470200        3.6995775185       -2.4296414381
 H         -4.1051780338        4.4306197067       -3.0465609300
 H         -3.2008305710        3.2632895077       -2.5405662097
 O          1.3556628899       -4.0296670617        0.3219868377
 H          2.0604840585       -4.5863277340       -0.0502467574
 H          1.7756016789       -3.5270155031        1.0408853887
 O          1.5924629232        3.3252243121       -0.0886534471
 H          1.5681240758        3.2658316753        0.8813281755
 H          2.5273294260        3.2401193654       -0.3337132398
 O          3.5832610402       -0.4440538764       -4.0749498010
 H          3.7962175572       -1.3724397457       -3.9235379747
 H          4.2531945724        0.0809518656       -3.6093433509
 O         -4.5097234477       -1.8801357977        2.8540382886
 H         -3.6170371224       -2.2790816404        2.8003576055
 H         -4.7191773527       -1.6572683437        1.9300619337
 O          6.0389817618       -0.6438606035        2.5756224835
 H          6.2769708325       -1.1903327199        1.8068495703
 H          5.7387828455        0.1995065868        2.1997723556
 O          4.9181108425       -1.0756465666       -1.4660896287
 H          4.1759527021       -0.7328762250       -0.9308731909
 H          4.5431384872       -1.8413373265       -1.9574353899
 O          5.2640573534       -4.1217281086        1.2721380360
 H          5.7860844196       -3.3837358571        0.8722354393
 H          5.8539976443       -4.5921609455        1.8622901891
 O         -0.5226834675        0.5821778394       -4.0754927334
 H         -1.1535252543       -0.1553015477       -4.1021043595
 H          0.1874861567        0.3361490425       -3.4376241012
 O         -2.7711581215       -3.4875837105       -1.1051985152
 H         -3.6325481521       -3.4173199414       -1.5207429019
 H         -2.5952812608       -2.6201034262       -0.6912475058
 O         -2.4438882151       -1.3726080911       -3.9986403979
 H         -2.8780808748       -1.4994657101       -4.8431487747
 H         -3.1633455488       -1.3005693718       -3.3303317611
 O         -5.7369300260        0.6254948119        3.2551899162
 H         -5.5427239640       -0.3246363690        3.2288518295
 H         -5.6083576053        0.8926579581        4.1685631071
 O         -5.2856133514       -1.1051152373        0.2963190778
 H         -6.1008805279       -1.6064567897        0.2362355011
 H         -5.5644923778       -0.1567213022        0.3865564808
 O         -0.8398436947        3.2856329187        3.9797110875
 H         -1.1691164280        2.4060845552        4.2344464940
 H         -1.5682651258        3.7049456372        3.4829143493
 O         -3.9208403762       -0.6088542843        5.2362381379
 H         -3.8697419370       -1.2097249780        5.9795937205
 H         -4.1175574128       -1.1507417904        4.4499146446
 O         -3.4005783910        1.2521173463        1.9884032028
 H         -3.4833730574        1.2524719460        1.0158084353
 H         -4.2869904362        1.0764646819        2.3562938289
 O         -4.5153162586       -1.1816822726       -2.3286097741
 H         -4.6404232295       -1.2209362442       -1.3617510360
 H         -4.9675154029       -0.3694505156       -2.5941470479
 O          3.0414109271       -0.4730651771        0.3845374784
 H          3.6214694969        0.1761172353        0.8392892255
 H          3.0697909133       -1.3003483883        0.9122369256
 O          6.5449935994       -2.0479918049        0.2630717816
 H          5.9331448730       -1.6343967320       -0.4310629809
 H          7.4201067166       -2.0602052290       -0.1246284632
 O          0.2718075998        4.2092531495       -2.3559717224
 H          0.8741474716        3.9186149159       -3.0575502440
 H          0.7764409727        4.0495397138       -1.5422883665
 O          1.2300306716       -2.5195854417       -1.8779084003
 H          1.2436701968       -3.0495069714       -1.0546204475
 H          0.4954466973       -2.8987154016       -2.4193771268
 O         -0.8914096455       -3.4613543453       -3.0989999926
 H         -1.5036707232       -3.6929790150       -2.3790613928
 H         -1.3407831458       -2.7496986836       -3.5818285927
 O          4.5501147421        1.3960801245        1.5484916368
 H          4.5169601330        2.0899252543        0.8646889147
 H          4.0839103391        1.7131207464        2.3370756531
 O          2.1842833745        2.6064930117       -3.4665488441
 H          1.8276857237        1.9405278090       -2.8604473225
 H          2.0258970203        2.2325421769       -4.3693117103
 O          1.2109396419        2.6849694247        2.5068461472
 H          1.8825433041        2.3678663921        3.1296241371
 H          0.4402803017        2.9908269065        3.0647422572
 O          3.6801021862       -3.0556229408       -2.7338018085
 H          2.7395923360       -2.8439919470       -2.5225274651
 H          3.8411130859       -3.8850627927       -2.2672082511
 O          4.6792610378        1.9593092115       -2.9558768213
 H          3.7650213999        2.2518518410       -3.2165255283
 H          5.2840629873        2.3672532040       -3.5761109387
 O          4.3284826771        3.0947187337       -0.5525946999
 H          4.5088305513        2.5769992803       -1.3725079351
 H          4.8230147660        3.9118453522       -0.6284511157
 O         -2.0648448234       -1.2668524393       -0.0892982286
 H         -1.0985640118       -1.0764295605       -0.0341273840
 H         -2.4880952706       -0.4451926650       -0.3833075558
 O          0.3603223160       -0.7111338884        0.5594972313
 H          1.2226994784       -0.3346710193        0.3398591486
 H          0.3027001751       -0.7048291096        1.5307664851
 O          1.4907640081       -3.5422598657        3.9951939575
 H          1.5385882851       -3.9889992093        3.1474302245
 H          1.0698891930       -2.6887208155        3.8114373529
