  90
       -152.68376427
 O         -4.3900387491        0.3359779387       -0.9334840503
 H         -5.3155271877        0.5612862751       -1.0308098990
 H         -4.0057493838        0.9699439992       -0.2819468483
 O         -2.5237942505        3.9812200996       -0.6481627734
 H         -1.6232407413        4.2940441463       -0.4502169307
 H         -2.4849851666        3.6735447940       -1.5821759185
 O          1.4250594561       -1.7337327110        1.5414891680
 H          1.8351242048       -0.9390621559        1.9355872078
 H          0.4644054492       -1.5715486051        1.5191552776
 O          2.5035967831        0.5545975716        2.5146195627
 H          3.0197199888        1.2673853622        2.1041796665
 H          1.7309796602        1.0117988969        2.8890012507
 O         -1.8692779336        0.8010451159        2.6929804511
 H         -1.6775208440       -0.0852911913        2.3306461636
 H         -2.3854539274        1.2595416768        2.0081790890
 O         -1.3804827632       -4.0644714430        2.6868383451
 H         -1.5149154982       -4.3789422425        3.5803343555
 H         -0.4285327675       -4.2691459836        2.4566602370
 O          4.2595255139        2.1423756748       -0.9556065182
 H          4.4323604250        1.1963145854       -0.8109748816
 H          4.0781047727        2.4947009999       -0.0664866511
 O         -3.0514722737       -2.0183093546       -0.5111472037
 H         -2.6918432375       -2.2049149485       -1.3907753659
 H         -3.6127400625       -1.2317956725       -0.6141300478
 O         -2.7615662561        0.2913943818       -3.1992055833
 H         -2.5549360004       -0.6504205299       -3.2678890514
 H         -3.3860730394        0.3664990581       -2.4603620756
 O         -2.0791493283        3.0474123758       -3.1158510394
 H         -2.2386740051        2.1052628329       -3.2701782964
 H         -1.1267069466        3.2002841266       -3.1969272384
 O         -1.8901975934       -2.4771407852       -3.0354196256
 H         -1.9094494953       -2.8494034416       -3.9173108810
 H         -0.9658033620       -2.0682412165       -2.8983657878
 O          0.1119264808        4.7517568946       -0.4969958487
 H          0.2560746624        5.6809759379       -0.6797080008
 H          0.3462447270        4.2689494735       -1.3354300067
 O          4.2904368517       -0.5325740497       -0.1271022727
 H          4.0182043142       -0.4832837651        0.7941293719
 H          3.8319256171       -1.3021604968       -0.4988404775
 O          2.4473986923       -2.5934718638       -0.8211493044
 H          2.2525877933       -3.5406954399       -0.8585108792
 H          2.0594240537       -2.3001409430        0.0282870455
 O          1.1264379928       -4.4066711184        2.0546269681
 H          1.1930596958       -4.7305531670        1.1370859466
 H          1.4018132862       -3.4735493320        2.0132631762
 O          0.6857117678        3.5269842136       -2.7777619964
 H          1.5443407249        3.9339910709       -2.9681822437
 H          0.9283869259        2.5823628669       -2.5674555043
 O          1.2635920719       -5.0987445623       -0.6056994809
 H          0.3530557096       -4.9617672633       -0.9784828546
 H          1.4978852291       -6.0030509955       -0.8144401281
 O          0.3247167679        2.0563150023        3.3810436915
 H          0.2405813688        2.2214525826        4.3203464798
 H         -0.5141191803        1.5982242348        3.1070612702
 O          3.3999061317        4.1011944553       -2.7441965922
 H          3.7332543334        3.4457853291       -2.1069257017
 H          4.1139541835        4.2544967634       -3.3630711211
 O          1.3641856853        4.1974434294        1.9373499220
 H          0.8774086884        3.5028396699        2.4139776717
 H          0.8819251427        4.3586491346        1.1079617028
 O         -2.9122644020       -4.6455404920        0.4470545639
 H         -2.4135522919       -4.5465977699        1.2746853921
 H         -3.1996564853       -3.7531430593        0.2053690868
 O         -1.1629141844       -4.8280602984       -1.5802459752
 H         -1.4204396932       -4.0322533323       -2.0676930560
 H         -1.8107141827       -4.9040978662       -0.8440025221
 O         -3.4433855635        2.0951830525        0.8290826093
 H         -4.1118731788        2.5402278650        1.3518230007
 H         -3.0275832619        2.8162355566        0.2589489261
 O          3.6387087007        2.9314984098        1.5958367238
 H          2.8063291813        3.4683505030        1.7007288133
 H          4.3045648067        3.3612208745        2.1325635488
 O         -1.3219602495       -1.6004805991        1.5406553915
 H         -1.4125896322       -2.4138045435        2.0710931424
 H         -1.9332835559       -1.7227086269        0.7862093445
 O          1.5615582177        1.1570111080       -1.7922308717
 H          2.4686766333        1.4100929917       -1.5592775272
 H          1.0469691214        1.1325519045       -0.9648202495
 O          0.5719308869       -1.4453653148       -2.4841111030
 H          1.1972939432       -1.9206366843       -1.8974904900
 H          0.7814717107       -0.5042889347       -2.3729391572
 O         -0.3384504973        0.9127254122        0.1368707537
 H         -0.6089575587        0.0342795300        0.4207908102
 H         -1.1185672394        1.3627591323       -0.1938204195
 O         -0.5517542568       -1.3588136053        4.4773406042
 H         -1.0872448384       -0.6080996785        4.2078887672
 H          0.3000048784       -1.2729476066        4.0436281493
 O          3.2142069455       -1.3686808324       -3.8523153766
 H          3.6707385155       -1.3986601356       -3.0090804908
 H          2.2737738847       -1.4383845127       -3.6532859853
