  90
       -152.67606472
 O         -2.1934314108       -2.6660562684        3.4681708076
 H         -1.2831594055       -2.3961025191        3.6903688152
 H         -2.0965151825       -3.3393961729        2.7681288190
 O         -5.1135902995        3.0675658970       -0.0977743029
 H         -5.9794868207        3.4520590885       -0.2371171411
 H         -5.1266866482        2.1899585319       -0.5205780758
 O          2.4474020523       -2.0888789654        2.2466224428
 H          2.4148640355       -1.3263574150        1.6481278508
 H          2.4193327462       -2.8667907568        1.6686858880
 O          0.4204704165       -2.0434576225        4.0220215157
 H          0.7540478944       -2.5785192019        4.7428014447
 H          1.1289726251       -2.0396288681        3.3411140605
 O         -3.6243344019       -0.7847931058        2.3725406320
 H         -3.0606821771       -1.4955677785        2.7916431786
 H         -4.3663704000       -0.6592919116        2.9641637906
 O          0.1189787820       -2.5447746892       -0.1086211638
 H          0.8651753309       -3.1554830468        0.0307838731
 H          0.4675658417       -1.8488312313       -0.6924913153
 O          2.5505575409       -0.0884690685        0.3246923571
 H          1.9612854666       -0.1730695488       -0.4366468490
 H          2.6587893480        0.8709961959        0.4963475367
 O         -4.4908629693       -1.4881154233       -0.0970170440
 H         -3.7423568684       -1.9440105173       -0.5313402836
 H         -4.1828932388       -1.2594053553        0.8030084081
 O         -1.4794815461       -0.7123814890       -3.1723810273
 H         -1.5681482297       -0.4639993478       -4.0925018388
 H         -1.8744508116        0.0301654431       -2.6352772461
 O         -2.4563639305        1.2494047644       -1.7461551091
 H         -2.2056186206        1.1630971714       -0.7674883898
 H         -3.4170911525        1.0742524457       -1.7497103147
 O         -2.3499299552       -2.6300736910       -1.3276272268
 H         -2.1865340239       -2.1096286242       -2.1245949025
 H         -1.4991822721       -2.6313609884       -0.8546690719
 O          3.1129350651        2.4321791406       -2.0621167645
 H          2.1934420500        2.5085435779       -2.3388941442
 H          3.1067786303        2.5551348762       -1.0964891381
 O          4.9838860521       -0.9351616575       -0.3060969808
 H          5.4849948951       -1.0546623286        0.5007036824
 H          4.0820424019       -0.6342642141       -0.0345246204
 O          4.5946284825        0.3101871878       -2.8003962895
 H          4.9611222120       -0.0114104423       -1.9648798531
 H          4.1032441022        1.1334707717       -2.5872423380
 O          2.3430431129       -4.0475028485        0.2577227807
 H          2.4004259822       -5.0017967832        0.2967575333
 H          2.9881419457       -3.7499757208       -0.4394534384
 O          0.2872640488        2.0470417651       -2.1669105413
 H          0.5919136872        1.1388835553       -1.9975064691
 H         -0.6734812079        1.9857983329       -2.2152983628
 O          4.0150552299       -3.1754323269       -1.5640782363
 H          3.5634783215       -2.7498975080       -2.3112024130
 H          4.5110291585       -2.4552814115       -1.1331673382
 O          1.0998189307        3.9602973206        1.6508596536
 H          0.5939642635        4.2601015298        0.8714720350
 H          0.5027186202        3.3576750040        2.1541620234
 O          2.8941468402       -1.5063850321       -3.4728754722
 H          3.5781379913       -0.7967577872       -3.2582059726
 H          2.9030290656       -1.6050053567       -4.4245675826
 O         -0.2787516795        4.3764665755       -0.6498825024
 H         -1.2027296897        4.4782093013       -0.9414003581
 H          0.0978568658        3.7009029458       -1.2298525575
 O         -5.0653902620        0.6392061200       -1.4384997053
 H         -5.7268349023        0.3673602034       -2.0748861315
 H         -4.8743619065       -0.1755128205       -0.8770232821
 O          0.9079034805       -0.6338298930       -1.9224059529
 H          0.0698671265       -0.7610206027       -2.4138389565
 H          1.6167600774       -0.9721890218       -2.5110730072
 O         -2.8651171073        4.0163538332       -1.5221910276
 H         -2.6941024699        3.0940358273       -1.7687911592
 H         -3.6167086604        3.9644571928       -0.9145057534
 O          2.9870663287        2.5197944574        0.6822932707
 H          3.7841286541        2.8159466300        1.1213178639
 H          2.2407952087        3.0944408056        1.0544565449
 O         -1.7610146734       -4.1812781939        1.2490977435
 H         -1.0292301134       -3.6367180679        0.9278647373
 H         -2.4447044487       -4.1218300435        0.5766746816
 O         -1.9122003594        0.8766135393        0.8620674706
 H         -2.4024711047        0.1585197834        1.2926756850
 H         -2.2674413936        1.6794865554        1.2966465526
 O          0.5135847448        0.9335903151        2.4046171281
 H         -0.1922416079        0.8521698386        1.7449807445
 H          0.4093168588        0.1827354101        2.9957612450
 O         -3.2071848872        2.9665572138        1.9508409573
 H         -3.9806206953        3.0023418294        1.3666770523
 H         -2.8215671278        3.8441482942        1.9620987309
 O          3.4834489778        0.8436848153        2.9590487061
 H          2.5828353701        1.1166163281        2.7422144794
 H          3.4499079101       -0.1108718342        3.0501101691
 O          0.2851402248       -3.0716487169       -3.5861238258
 H         -0.1061949825       -3.4675421796       -2.8046390475
 H          1.2188155981       -2.9373098312       -3.4057266400
  90
       -152.68376427
 O         -4.3900387491        0.3359779387       -0.9334840503
 H         -5.3155271877        0.5612862751       -1.0308098990
 H         -4.0057493838        0.9699439992       -0.2819468483
 O         -2.5237942505        3.9812200996       -0.6481627734
 H         -1.6232407413        4.2940441463       -0.4502169307
 H         -2.4849851666        3.6735447940       -1.5821759185
 O          1.4250594561       -1.7337327110        1.5414891680
 H          1.8351242048       -0.9390621559        1.9355872078
 H          0.4644054492       -1.5715486051        1.5191552776
 O          2.5035967831        0.5545975716        2.5146195627
 H          3.0197199888        1.2673853622        2.1041796665
 H          1.7309796602        1.0117988969        2.8890012507
 O         -1.8692779336        0.8010451159        2.6929804511
 H         -1.6775208440       -0.0852911913        2.3306461636
 H         -2.3854539274        1.2595416768        2.0081790890
 O         -1.3804827632       -4.0644714430        2.6868383451
 H         -1.5149154982       -4.3789422425        3.5803343555
 H         -0.4285327675       -4.2691459836        2.4566602370
 O          4.2595255139        2.1423756748       -0.9556065182
 H          4.4323604250        1.1963145854       -0.8109748816
 H          4.0781047727        2.4947009999       -0.0664866511
 O         -3.0514722737       -2.0183093546       -0.5111472037
 H         -2.6918432375       -2.2049149485       -1.3907753659
 H         -3.6127400625       -1.2317956725       -0.6141300478
 O         -2.7615662561        0.2913943818       -3.1992055833
 H         -2.5549360004       -0.6504205299       -3.2678890514
 H         -3.3860730394        0.3664990581       -2.4603620756
 O         -2.0791493283        3.0474123758       -3.1158510394
 H         -2.2386740051        2.1052628329       -3.2701782964
 H         -1.1267069466        3.2002841266       -3.1969272384
 O         -1.8901975934       -2.4771407852       -3.0354196256
 H         -1.9094494953       -2.8494034416       -3.9173108810
 H         -0.9658033620       -2.0682412165       -2.8983657878
 O          0.1119264808        4.7517568946       -0.4969958487
 H          0.2560746624        5.6809759379       -0.6797080008
 H          0.3462447270        4.2689494735       -1.3354300067
 O          4.2904368517       -0.5325740497       -0.1271022727
 H          4.0182043142       -0.4832837651        0.7941293719
 H          3.8319256171       -1.3021604968       -0.4988404775
 O          2.4473986923       -2.5934718638       -0.8211493044
 H          2.2525877933       -3.5406954399       -0.8585108792
 H          2.0594240537       -2.3001409430        0.0282870455
 O          1.1264379928       -4.4066711184        2.0546269681
 H          1.1930596958       -4.7305531670        1.1370859466
 H          1.4018132862       -3.4735493320        2.0132631762
 O          0.6857117678        3.5269842136       -2.7777619964
 H          1.5443407249        3.9339910709       -2.9681822437
 H          0.9283869259        2.5823628669       -2.5674555043
 O          1.2635920719       -5.0987445623       -0.6056994809
 H          0.3530557096       -4.9617672633       -0.9784828546
 H          1.4978852291       -6.0030509955       -0.8144401281
 O          0.3247167679        2.0563150023        3.3810436915
 H          0.2405813688        2.2214525826        4.3203464798
 H         -0.5141191803        1.5982242348        3.1070612702
 O          3.3999061317        4.1011944553       -2.7441965922
 H          3.7332543334        3.4457853291       -2.1069257017
 H          4.1139541835        4.2544967634       -3.3630711211
 O          1.3641856853        4.1974434294        1.9373499220
 H          0.8774086884        3.5028396699        2.4139776717
 H          0.8819251427        4.3586491346        1.1079617028
 O         -2.9122644020       -4.6455404920        0.4470545639
 H         -2.4135522919       -4.5465977699        1.2746853921
 H         -3.1996564853       -3.7531430593        0.2053690868
 O         -1.1629141844       -4.8280602984       -1.5802459752
 H         -1.4204396932       -4.0322533323       -2.0676930560
 H         -1.8107141827       -4.9040978662       -0.8440025221
 O         -3.4433855635        2.0951830525        0.8290826093
 H         -4.1118731788        2.5402278650        1.3518230007
 H         -3.0275832619        2.8162355566        0.2589489261
 O          3.6387087007        2.9314984098        1.5958367238
 H          2.8063291813        3.4683505030        1.7007288133
 H          4.3045648067        3.3612208745        2.1325635488
 O         -1.3219602495       -1.6004805991        1.5406553915
 H         -1.4125896322       -2.4138045435        2.0710931424
 H         -1.9332835559       -1.7227086269        0.7862093445
 O          1.5615582177        1.1570111080       -1.7922308717
 H          2.4686766333        1.4100929917       -1.5592775272
 H          1.0469691214        1.1325519045       -0.9648202495
 O          0.5719308869       -1.4453653148       -2.4841111030
 H          1.1972939432       -1.9206366843       -1.8974904900
 H          0.7814717107       -0.5042889347       -2.3729391572
 O         -0.3384504973        0.9127254122        0.1368707537
 H         -0.6089575587        0.0342795300        0.4207908102
 H         -1.1185672394        1.3627591323       -0.1938204195
 O         -0.5517542568       -1.3588136053        4.4773406042
 H         -1.0872448384       -0.6080996785        4.2078887672
 H          0.3000048784       -1.2729476066        4.0436281493
 O          3.2142069455       -1.3686808324       -3.8523153766
 H          3.6707385155       -1.3986601356       -3.0090804908
 H          2.2737738847       -1.4383845127       -3.6532859853
  90
       -152.67636643
 O         -5.3757557063        0.5753068530        0.6853138977
 H         -6.0226132817        0.0661751640        0.1938594901
 H         -5.1067273283        1.2944744853        0.0759697396
 O         -3.1070823722        2.2032845555       -3.2146364188
 H         -2.3350351453        2.7629108503       -3.0184840747
 H         -2.7383173286        1.3240919876       -3.3999611007
 O          2.0816063340       -2.7838611507        0.9072823659
 H          2.5817281045       -2.3119862428        1.5982380049
 H          2.3884206249       -2.4110177010        0.0636723692
 O          3.4635265758       -1.2444323279        2.6882396991
 H          4.1152610136       -1.5987774081        3.2936223263
 H          2.9954566909       -0.5125783445        3.1954525164
 O         -0.2994908494        0.9978131985        4.3385759169
 H         -0.7835183563        0.1621287879        4.1489988032
 H         -0.4655368573        1.1952537341        5.2607462573
 O         -0.2348287423       -3.1369648105        2.2090753718
 H          0.5925926681       -2.9589233487        1.7106303938
 H         -0.2155455143       -4.0675646725        2.4378876714
 O          3.4825064706        2.3201781976       -0.2724707808
 H          3.8314008707        1.4475577663        0.0576978130
 H          4.2498266758        2.8764469168       -0.4157158030
 O         -3.9811366915       -1.0783746335        2.2752294730
 H         -4.6994042861       -1.4609096816        2.7816753391
 H         -4.3903471333       -0.3858435590        1.7101509123
 O         -1.5010267974       -0.0891504222       -3.4217092287
 H         -1.4344270923       -0.0939210681       -2.4242882588
 H         -0.7213348022        0.4115662170       -3.7175225680
 O          0.7636961188        1.3897682713       -3.9988478470
 H          1.5754177611        1.1514863007       -3.4910008403
 H          1.0453551214        1.5522418508       -4.8992011667
 O         -0.9106090829       -2.6327234315       -3.6875527233
 H         -1.1726752137       -1.6757417459       -3.6184551710
 H         -1.2550840707       -2.9526984595       -4.5212550036
 O         -0.6688600586        3.3629203437       -2.6007624680
 H         -0.1369346690        2.7530180188       -3.1343366597
 H         -0.1540970530        3.5308204998       -1.7931333059
 O          4.3157110370       -0.0526745262        0.4208987895
 H          4.0817286738       -0.4165964040        1.2983654250
 H          3.9034997319       -0.6393187368       -0.2273669220
 O          3.1541306863       -1.7651661154       -1.4997639174
 H          2.5129246293       -2.2752332869       -2.1023497393
 H          4.0081229669       -2.1488647367       -1.7119809993
 O          1.0755705727       -4.8578766047       -0.9113136470
 H          0.1064831586       -4.7303580364       -1.0184086069
 H          1.3497468715       -4.3232469252       -0.1585422811
 O          0.8356128100        3.4249269915       -0.2586038494
 H          1.7524027595        3.1613495755       -0.4031595347
 H          0.4354075032        2.6880949763        0.2878150605
 O          1.6683036588       -3.2414240769       -2.9473288136
 H          0.7861949388       -2.9688963912       -3.2555036733
 H          1.5049687944       -3.9735775408       -2.3059948669
 O          2.4010592365        0.7052031951        3.9928751466
 H          2.6391151128        1.5286228830        3.5192926814
 H          1.4360556033        0.7538605943        4.1234660513
 O          2.9442531670        0.8150485546       -2.6020943740
 H          3.0786194886        1.4050925341       -1.8438938951
 H          2.9860620970       -0.0924107736       -2.2588324620
 O          0.9131382342        4.7940172860        2.0759374288
 H          0.0546211616        4.6440785092        2.4740015444
 H          0.8411429424        4.4912537095        1.1466392705
 O         -2.2934167917       -2.4278613420        0.5475422791
 H         -1.5878997518       -2.7040646107        1.1584908434
 H         -2.9895681663       -2.0339368305        1.0957131315
 O         -1.4733669442       -4.1790143418       -1.4251984723
 H         -1.3517861830       -3.6581059522       -2.2352535567
 H         -1.8929632220       -3.5828254987       -0.7871636947
 O         -4.7710218900        2.4403579434       -1.1551245780
 H         -4.7587041933        3.3850811239       -1.0005978450
 H         -4.2008575547        2.2945377485       -1.9499827930
 O          2.8408777582        2.8978764946        2.4871684628
 H          3.0178661264        2.7343751626        1.5518354828
 H          2.2104483570        3.6413842370        2.5092708052
 O         -1.6203204562       -1.2760932813        3.8251872691
 H         -1.0910686729       -1.9305919255        3.3454635908
 H         -2.4398295627       -1.1579061057        3.3203375892
 O         -1.6446078999        0.0066691881       -0.7501218611
 H         -2.0481756606       -0.7649121433       -0.3202674247
 H         -1.9357556211        0.8137664485       -0.2826152636
 O          0.4888887070        1.4306735120        1.5251139718
 H          0.7962213597        0.6907403792        0.9535382062
 H          1.1720242991        1.6147959052        2.1773953238
 O         -2.0072805756        2.1197686355        0.9325598831
 H         -2.6914890569        2.1961104991        1.5980432583
 H         -1.1819860611        1.8703388985        1.3917556363
 O          0.9156649330       -0.4449234858       -0.2576326986
 H          0.8374683963       -1.3294864541        0.1087655832
 H          0.0312014413       -0.2278351260       -0.6155326637
 O         -1.5549600062        4.9292782062        0.8835704823
 H         -0.9562451399        5.3020740199        0.2332964576
 H         -1.6862738332        4.0032833652        0.6338021790
  90
       -152.68266217
 O         -5.0051265082        0.6980018459       -0.0521585975
 H         -5.9349183229        0.9264528693       -0.0506017689
 H         -4.6854046456        0.9007633515       -0.9810381419
 O         -4.2163851499        1.1296131022       -2.4827813099
 H         -3.5407499807        1.8242509717       -2.5976223375
 H         -3.8221427221        0.3120272219       -2.8409684225
 O          3.4714096721       -1.9264168045        1.7959683919
 H          4.2503766492       -2.4167261008        2.0648729089
 H          3.3178493482       -1.2470309724        2.4897390095
 O          3.2840269445        0.0396444451        3.6446128613
 H          3.5365566708        0.8743872199        3.1503302908
 H          3.8576347626        0.0096793741        4.4115059737
 O         -1.2027051534       -0.5035799322        4.5173993676
 H         -1.5988623469       -1.0522183843        3.8133259543
 H         -1.8549687643       -0.4655761095        5.2173338293
 O         -0.9384691437       -3.9005427151        1.1002556956
 H          0.0468745235       -3.8324252458        1.0225841689
 H         -1.1108816256       -4.7912748618        1.4078735040
 O          3.7860965997        2.0114517389       -0.4024922996
 H          4.6448037658        2.3968867197       -0.5836649166
 H          3.9148870617        1.0165909276       -0.4095651373
 O         -4.2987850146       -1.7631350781        0.5769672389
 H         -5.1372683929       -2.2073621185        0.7075893321
 H         -4.5176213921       -0.8210866972        0.3540534942
 O         -0.1591911851       -0.6586609226       -3.0328466595
 H         -0.4104622122       -0.7398305495       -2.0710368930
 H         -0.0237769266        0.3015708646       -3.1599481633
 O          0.4912132102        1.9683154758       -2.8563436512
 H          0.6256079383        2.3053184898       -1.9484691753
 H          1.3931346357        1.9030783422       -3.2260775746
 O         -2.9061863175       -1.1642892588       -3.2126120301
 H         -1.9824475883       -0.9149083312       -3.3713308435
 H         -2.8859272951       -1.8657860928       -2.5514320158
 O         -2.1617448330        2.9269435557       -2.7462454871
 H         -1.3068876655        2.5832673806       -3.0379155856
 H         -1.9599234478        3.5552488649       -2.0349097971
 O          2.4710777362       -1.2793028085       -2.6158741166
 H          1.5450485842       -1.0390626325       -2.8330010417
 H          2.4431311140       -2.2355599051       -2.4529801829
 O          4.0666780305       -0.5506392618       -0.5362960991
 H          3.5037530763       -0.8492061697       -1.2780821122
 H          3.8026218571       -1.0607716394        0.2471760005
 O          1.6799943092       -3.8682492428        0.8354664161
 H          1.8437293067       -3.8843204851       -0.1261525106
 H          2.2426862288       -3.1716034576        1.2063185507
 O          1.0607716515        2.8451936920       -0.2961060274
 H          2.0134699383        2.6965920777       -0.2502239357
 H          0.6371825690        2.2593441301        0.3950153766
 O          1.9080114923       -3.8802817416       -1.8933642521
 H          2.2550814969       -4.6678727299       -2.3129097812
 H          0.9826361602       -3.7667590114       -2.2464582962
 O          0.8461475657        1.3623164575        4.4105279079
 H          1.6242854042        0.8110104931        4.2411606299
 H          0.1098833395        0.7390635023        4.5272239426
 O          3.1179566749        1.4523342711       -3.1811652495
 H          3.3549309694        1.7139114693       -2.2806592333
 H          3.1133089765        0.4863327901       -3.1888446603
 O          1.6227459370        3.6214753400        3.0149791488
 H          1.2735013288        2.9648778007        3.6426436910
 H          0.9771368140        3.7048287959        2.3083906983
 O         -2.5105405531       -3.1106974549       -1.0437463627
 H         -3.2104097804       -2.6310568146       -0.5668393249
 H         -1.9469545270       -3.4783867957       -0.3423199338
 O         -0.4557790727       -3.4437691160       -2.9312275264
 H         -1.2276602252       -3.4347315735       -2.3452632830
 H         -0.3796795226       -2.5437658100       -3.2771358663
 O         -0.9575653925        4.6112555857       -0.8523079076
 H         -0.1705936137        4.0751687942       -0.6523788327
 H         -0.6483994929        5.4018117715       -1.2958532056
 O          3.8385939298        2.2362115313        2.3705453773
 H          3.7878455671        2.1801711998        1.4017926547
 H          3.1255318101        2.8540821030        2.6396561791
 O         -2.3780844073       -2.0465689927        2.5859832496
 H         -1.8146439710       -2.7057777642        2.1499983951
 H         -3.1015320639       -1.8701522983        1.9621915501
 O          0.2554801633        1.0657391283        1.5867304387
 H         -0.7154851601        1.1790225592        1.7065014010
 H          0.6246158988        1.2590284635        2.4620725116
 O          0.0198508906       -0.9401164777       -0.2052357459
 H         -0.2236705475       -1.7461069385        0.2557284182
 H          0.3237061744       -0.3077904330        0.4753633956
 O         -2.1807101445        0.6000852995       -0.6641794280
 H         -2.0054714551        1.3055005444       -1.2930789962
 H         -1.3742983200        0.0751240133       -0.5360600048
 O         -2.4086931851        1.3111023957        1.8662904793
 H         -2.6179813247        1.1008191134        0.9273618122
 H         -2.7689213091        0.5945664708        2.3907331778
 O         -0.9527317888        3.7499959891        1.8007943325
 H         -1.2469717448        4.2199048316        1.0130570767
 H         -1.6219599131        3.0795224940        1.9795443441
