  132
       -218.68492879
 H          1.6960865770        1.4808531499        1.9242275773
 C          1.1152172125        1.1995906256        1.0437976601
 H          0.0593065170        1.3545555520        1.2629494367
 C          1.3415521973       -0.2615816739        0.6919078802
 H          0.7301322941       -0.5259080250       -0.1712237514
 H          1.0651045557       -0.8858634616        1.5379694303
 O          1.5295003302        2.0613219676       -0.0015964360
 H          1.2842466724        1.6618012397       -0.8770778136
 N          2.7677163011       -0.4538095469        0.3847918186
 H          3.0011791737       -1.4269845921        0.0909202727
 H          3.3419451102       -0.1845110492        1.2189511949
 H          3.0572372054        0.1728872358       -0.4122667634
 O         -0.2705351429       -2.5654705359        3.5440174755
 H         -0.4301527825       -1.6973543540        3.9733511569
 H          0.6837257070       -2.6801836203        3.4982723382
 O          2.0710469342       -0.0577546925        3.8864436639
 H          2.2102307185       -0.9773788389        3.6225766105
 H          2.9029005192        0.3876931594        3.6959818347
 O         -0.1494977195       -3.0842618640       -0.6464625593
 H          0.5285802015       -3.5753753246       -0.1591782514
 H         -0.7036141386       -2.6278517795        0.0238519930
 O         -1.6424289236       -2.0961857729        1.3451313871
 H         -1.1257292828       -2.3467931141        2.1481582708
 H         -1.7504600530       -1.1174207180        1.3918133647
 O         -1.2138425712       -0.3752292638       -1.2885641561
 H         -1.5715530593       -0.6966425986       -2.1196835381
 H         -1.9771825994       -0.1380597881       -0.7518581455
 O         -5.0516227882        2.7321318452        0.5116893160
 H         -5.5863021429        3.5037042656        0.7029605263
 H         -5.6627473582        2.0221690083        0.2364680140
 O         -0.2953253411        4.0868412497        0.5531810111
 H          0.4474861066        3.4976043950        0.3349432671
 H         -0.3505797220        4.0614427956        1.5284439250
 O          3.2680862075        3.2141658448       -2.6510501415
 H          2.3794121783        3.5965151032       -2.4884735919
 H          3.2253470719        2.8778804821       -3.5590805796
 O          1.0078863774        0.9354437721       -2.3881162194
 H          0.7882592289       -0.0153696815       -2.4329013265
 H          0.1644247843        1.4032922929       -2.5527730722
 O          2.6716072223        1.3162419159       -4.5285110270
 H          2.0199240960        1.1639310089       -3.8155568720
 H          3.0027044150        0.4558033060       -4.7887990294
 O          3.8322058603        0.8069546618       -1.7052549944
 H          4.7919792174        0.8169338070       -1.5871258838
 H          3.5606522853        1.6964401841       -2.0469467834
 O         -2.2172281323        2.4148350345       -0.0607332730
 H         -3.1171948636        2.7239416552        0.0928842719
 H         -1.5906919038        3.1391454072        0.1986715206
 O         -1.9994441381       -1.7297020517       -3.9677634173
 H         -1.8943901908       -1.9814181387       -4.8864799437
 H         -2.9117250435       -1.3351673238       -3.9187721178
 O         -6.3633819743       -1.4439565613       -1.9977494900
 H         -7.0603990429       -2.0226812717       -2.3075334738
 H         -5.6809351724       -2.0143919552       -1.5767723409
 O          0.6312897776       -1.7322516453       -2.8363113859
 H          0.3802093917       -2.2110789073       -2.0173300823
 H         -0.1579945523       -1.7489486434       -3.3905390628
 O         -3.7832441919       -0.1338260846       -0.3808686356
 H         -3.8975602965       -1.0851867947       -0.5888691909
 H         -4.6404777415        0.1521350157       -0.0332610257
 O         -2.3289614026        2.2327535661        4.5056611057
 H         -1.8220920269        1.4265850141        4.6942962186
 H         -3.1251579458        1.9483223278        4.0395517086
 O         -0.4164323708        3.5812926220        3.1933024455
 H         -0.1059799594        4.2217766914        3.8332182401
 H         -1.1649965225        3.1140920857        3.6295347630
 O         -4.3964110732       -0.6650792266       -3.8862204955
 H         -4.2474003000        0.2405495733       -3.5570192898
 H         -5.1202409057       -1.0106394311       -3.3425774511
 O          5.8594118263        2.2020515919        1.0656951770
 H          5.0835057455        2.7069955566        0.6659666431
 H          6.3972525702        2.8596824027        1.5084116857
 O          5.4176839795       -2.2236011893        2.3366275313
 H          6.0311479737       -2.7090653715        2.8895792163
 H          5.7863930251       -2.2128252376        1.4347146617
 O          6.5084059195        0.6272381682       -0.9636177113
 H          7.2108269713        1.0183740119       -1.4849778378
 H          6.3610378568        1.2143420542       -0.1851656572
 O         -6.4523747644        0.4538133395        0.0036928873
 H         -6.5079594326       -0.1160225821        0.7867395925
 H         -6.5853099510       -0.1229272914       -0.7706789787
 O         -2.3398463050       -3.7711830047       -2.1369095259
 H         -1.5420712017       -3.6790007878       -1.5866201367
 H         -2.2212113440       -3.1428056598       -2.8693715137
 O         -4.0290977803       -3.0047890151        1.8775362285
 H         -3.9079289137       -3.6887233376        2.5366508820
 H         -3.1159671287       -2.6485919863        1.6765424080
 O          3.7443980256       -2.7057889510       -0.7772030872
 H          3.5921887303       -2.3701219657       -1.7077672200
 H          4.6942253250       -2.6026178630       -0.6178110391
 O          4.4084694343        0.3366729303        2.4077059963
 H          4.9213802809       -0.4724483396        2.5546285450
 H          5.0014002597        1.0057923623        2.0197902426
 O          3.3213976294       -1.5144602491       -3.0436400520
 H          3.4508872587       -0.6020366783       -2.7196643646
 H          2.3608673552       -1.6322084031       -3.1428134330
 O         -4.3402845837        1.1833812915        2.7431673268
 H         -4.5694503172        1.8101670437        2.0371013232
 H         -4.9348506302        0.4205396372        2.6431351483
 O         -5.8617039724       -1.0689823888        2.2394865448
 H         -5.1852606376       -1.7670370538        2.0840945918
 H         -6.4268281060       -1.3871334240        2.9443256262
 O          2.5672807328       -2.5566670629        2.6817582139
 H          2.3032590795       -3.2205525178        2.0235470558
 H          3.5329372455       -2.5341090523        2.6636498144
 O         -1.9422011497        0.4932214379        1.7793960885
 H         -2.8056293351        0.6254256044        2.2224717268
 H         -1.9811146717        1.1148420735        1.0213967539
 O         -3.9316315642        1.5769163472       -2.4653537291
 H         -3.7791354825        1.0124352050       -1.6735417496
 H         -4.6011673533        2.2153492400       -2.2202209961
 O         -4.3503733819       -2.7195593444       -0.8395162903
 H         -3.6257117133       -3.1862598548       -1.3350038065
 H         -4.3399456615       -3.0637475893        0.0647991810
 O         -1.2586338440        2.3536071718       -2.5963023106
 H         -2.0362001938        2.1486934966       -3.1249941372
 H         -1.5768836847        2.2926128699       -1.6708482597
 O         -0.6489531742        0.0333363474        4.1536520126
 H         -0.9590732112        0.2702220900        3.2611726782
 H          0.2978936148        0.2406161161        4.1822042071
 O          3.8744287583        3.4656954582        0.0231254370
 H          3.9129315122        3.6555733766       -0.9246403864
 H          3.0233826310        3.0058284903        0.1406385223
 O          0.7905862194        4.2034160318       -2.2002312462
 H          0.0663755138        3.6363962656       -2.5058327200
 H          0.4809176234        4.6165193086       -1.3893602305
 O          2.0443899193       -4.2588658547        0.5659746623
 H          2.6967988536       -3.8147195239       -0.0160138340
 H          2.1648933284       -5.2032028481        0.4634103445
 O          6.3636004379       -1.9826220252       -0.2367446454
 H          7.0794560715       -2.4373998084       -0.6832778173
 H          6.4066138805       -1.0445476676       -0.5186641412
