  132
       -218.68685477
 H         -2.5141044880       -0.4292211448        1.6157926160
 C         -1.7095607665       -0.9777011848        1.1214701785
 H         -1.4810754568       -1.8741167015        1.6992581519
 C         -0.4925871761       -0.0776038190        1.0188051794
 H         -0.2955611496        0.3627684009        1.9932505940
 H         -0.7069404666        0.7133952226        0.3006801752
 O         -2.1349780556       -1.4135604375       -0.1600551323
 H         -2.0557064457       -0.6324827634       -0.7947578393
 N          0.6821831827       -0.8306518160        0.5451363641
 H          1.3570004683       -1.0216747079        1.3235255865
 H          1.1548689072       -0.3140289227       -0.2280861744
 H          0.4205913603       -1.7852052792        0.1925883917
 O          2.9728787094        1.1029841736       -3.4805365622
 H          3.2285143688        2.0223678370       -3.2326108644
 H          2.3243261961        1.1991122032       -4.1960707738
 O         -2.2892615147        3.3574341876        3.0752824167
 H         -2.2228757829        3.3764857678        2.1075491774
 H         -1.3778478772        3.3170260406        3.3991302023
 O         -1.7250150027       -3.0109199694        3.8539937561
 H         -2.6039642436       -2.9945933595        3.4491490498
 H         -1.6135211252       -2.1657634746        4.3262709937
 O         -4.2719196241       -3.0486414776        2.5981689559
 H         -4.3812513506       -2.9876351893        1.6338196188
 H         -4.7712249607       -3.8142025161        2.8871109054
 O          5.0869148909        2.8138934374       -0.4606406990
 H          5.7724184888        3.0667194541        0.1580157132
 H          4.3182298423        2.4995768308        0.0727114607
 O          0.9970627186        0.6283469946       -1.7115162333
 H          0.6881828219       -0.2001999031       -2.1307688433
 H          1.8498936567        0.8049290164       -2.1579916957
 O          0.4580814139        2.9154034898        3.6236406539
 H          0.6502850005        1.9692576051        3.8193393124
 H          0.9838360161        3.4268133354        4.2397160097
 O          0.5085716211       -3.4916353891        0.1006663050
 H          1.4929535394       -3.4614034615        0.0187129315
 H          0.3745478501       -3.7715873500        1.0200821839
 O          0.4557649671       -1.7478599448       -2.8568259798
 H         -0.0271833582       -1.3448259276       -3.5968623414
 H         -0.1371259728       -2.4375847712       -2.5077627883
 O          1.0152732565        0.3671900451        4.1923886160
 H          0.2077920925        0.0235424883        4.6176145967
 H          1.3704895044       -0.3831753649        3.6791668397
 O         -1.4232374042       -3.4177502075       -1.8009956082
 H         -0.8276723356       -4.0298269868       -1.3517442105
 H         -1.6324220522       -2.7464109110       -1.1193740946
 O         -2.5074987852        3.7831546110       -2.1940718553
 H         -1.6481706335        3.3740938891       -2.4684053850
 H         -2.5305912569        4.6638563537       -2.5677825612
 O         -2.0443980574        2.8424260864        0.3505875659
 H         -2.7304476451        2.1638542783        0.4377477545
 H         -2.2313059983        3.2833465307       -0.4955374011
 O          2.0923865950       -1.5914531127        2.6795055213
 H          3.0522408428       -1.6462841187        2.4958264580
 H          1.7372856724       -2.4959361003        2.7416374632
 O         -3.9346960790       -2.9165074226       -2.8052303633
 H         -4.2223749296       -3.5246365915       -3.4877964104
 H         -3.0162805799       -3.1613829870       -2.5842880850
 O         -2.8644432759        0.7643533710        3.3498343761
 H         -3.7994238069        0.4911737832        3.4182321995
 H         -2.8111521565        1.7427020180        3.3549407501
 O         -1.3999994424       -0.5547314135        5.0333425401
 H         -1.9628558595       -0.0288872286        4.3972437541
 H         -1.7713299777       -0.4186068612        5.9055634606
 O         -1.8585836137        0.5703391417       -1.7808365525
 H         -2.7431355656        0.9443601134       -1.9554692310
 H         -1.5110349515        0.2928688148       -2.6500005697
 O          3.2115628893       -0.4818703635       -0.4406838987
 H          3.9491097341       -0.3527775901       -1.0590331997
 H          3.1968851697        0.3273055029        0.1021690320
 O          0.5915993346        3.0821108941        0.9389612550
 H          0.5675508402        3.1492965518        1.9124607438
 H         -0.3287567196        2.9025979805        0.6704160641
 O          1.3734193454        4.5529508070       -1.1506381376
 H          1.3538885277        5.4853585854       -0.9348178139
 H          1.1630123062        4.0593586380       -0.3277172708
 O         -4.2841029521        1.6908365681       -2.1772023708
 H         -4.5375891747        1.7089202306       -1.2397257533
 H         -3.8670107546        2.5500473015       -2.3504194295
 O          3.0191347721        1.8416465783        0.8865209533
 H          2.1352115781        2.2431303630        0.8523356788
 H          3.2449531673        1.6796783873        1.8336313818
 O          4.8537399392       -3.2171454534       -1.8199588495
 H          5.4179888771       -3.6806746988       -2.4385169593
 H          4.2580649552       -2.6486994788       -2.3631645563
 O          3.0908936642       -3.0629576720        0.2768911691
 H          3.1710681979       -2.1083239953        0.0690996811
 H          3.6944540382       -3.4864365107       -0.3444454144
 O          5.3542556422        0.4817695703       -1.8709639311
 H          5.3627375201        1.3578585395       -1.4431016617
 H          5.0149445535        0.6159733976       -2.7598700303
 O         -6.1537271680       -0.5443436679        0.6206717568
 H         -6.9636055317       -0.5411024189        0.1096640968
 H         -5.6176424625       -1.3155587945        0.3142728635
 O         -3.7929110111       -0.3780041588       -4.1228035310
 H         -3.9220377573       -1.2100217915       -3.6426711870
 H         -4.1623253317        0.3214584157       -3.5683245360
 O         -5.2436177628       -0.4901253947        3.2785235217
 H         -5.7667822488       -0.4033885131        2.4709862474
 H         -4.8844231809       -1.3899611298        3.2464290500
 O         -4.4979095159        1.5817076823        0.5758792098
 H         -5.0627960623        0.7851012643        0.6346587474
 H         -4.8007590987        2.1767559933        1.2646289601
 O          3.1909079854       -1.7279660699       -3.2867548205
 H          2.2509833935       -1.9000182412       -3.1167879081
 H          3.2604620918       -0.7694000297       -3.3805307276
 O          5.9749126944       -1.5013335846        0.0322809693
 H          6.0219171183       -0.7381412200       -0.5570347352
 H          5.6360774219       -2.2216681475       -0.5288008584
 O         -4.5483997896       -2.5160399759       -0.1324443032
 H         -4.6162718522       -2.8022493508       -1.0569400083
 H         -3.6701092154       -2.0718707236       -0.0959109257
 O          3.5323391817        3.5491830147       -2.6180622113
 H          4.2288351303        3.4443427354       -1.9536429548
 H          2.7838690272        3.9451704759       -2.1466928268
 O          4.7415890890       -1.2446430723        2.3600819996
 H          5.1285287047       -1.2972101997        1.4471170016
 H          5.3462804048       -1.7392113155        2.9140964358
 O         -1.1280726764       -0.1523428292       -4.2950266798
 H         -2.0763892769       -0.1944196221       -4.5286817056
 H         -0.6780578883        0.5041526686       -4.8415566750
 O         -0.0895149757        2.8428574425       -2.7161062697
 H          0.1197602811        1.9928267705       -2.2538018498
 H          0.4650312324        3.5093152381       -2.2776434856
 O          0.5526363369       -3.8554398920        2.8210971547
 H         -0.2979654234       -3.5537878446        3.2206948301
 H          0.8011706453       -4.6540255300        3.2867768303
 O          0.7499598793        1.8165487954       -5.0555991821
 H          0.8918809139        2.4663668214       -5.7439343991
 H          0.4301214354        2.2974757623       -4.2605290436
 O          3.6928091644        1.1480361440        3.3302283880
 H          2.9331186947        0.8951767107        3.8664367254
 H          4.1443716312        0.3230476764        3.0772454795
