  189
       -320.75146733
 O          1.8451096101        2.0712680081       -4.7229144118
 H          0.8790033400        2.1420396094       -4.6234645108
 H          2.2270743767        2.5925658319       -3.9989122078
 O          0.7411949238        0.2356496551       -2.4365445942
 H          0.9742393307        0.0263673973       -3.3423577047
 H          0.3124619287       -0.5533750135       -2.0566236951
 O          2.6797935035        1.1665156286       -0.9183888736
 H          1.9797102842        0.7318034844       -1.4629682107
 H          3.0808290090        0.4598928744       -0.3587056014
 O         -0.5499024791       -2.0142872019       -1.4882654472
 H         -0.0061210978       -2.8117519895       -1.3685774447
 H         -0.9901509064       -2.0781505297       -2.3573290940
 O          5.3528027176       -2.5618321217       -1.3640055151
 H          5.3991628385       -2.1890814641       -2.2500373261
 H          6.1310284561       -2.2337066636       -0.8375663608
 O          1.3814800883       -2.6170362169        2.6700377136
 H          0.5481637821       -2.9658038499        3.0164343393
 H          1.1870376056       -2.0659140545        1.8864616090
 O         -0.2288337946       -4.9741374215       -3.4151534994
 H          0.2112940558       -4.9496637928       -2.5470623701
 H          0.1704303787       -4.2469200271       -3.9140725686
 O         -1.8933548618        4.3431481532        2.0262266198
 H         -2.4081615898        4.2824795535        1.1988464427
 H         -1.1562372663        4.9364037224        1.8193597470
 O         -0.1171820721        3.6597753810       -2.0908184021
 H         -0.0365232326        3.1725270237       -1.2509298429
 H         -0.5729183696        4.5162997738       -1.8804597740
 O         -0.1108389416        2.4566505649        2.8451903752
 H          0.6941709730        2.9505639419        3.0696494388
 H         -0.8103623167        3.1181297015        2.6871182004
 O          2.5082026221        3.4937453753       -2.3557330286
 H          2.5883503944        2.6625247152       -1.8581525261
 H          1.5457261750        3.6997381379       -2.3472213372
 O          3.2117245157        4.5934239035        0.1167328846
 H          2.9121586793        4.3399434803       -0.7729661027
 H          4.1632688356        4.4290114940        0.1275956779
 O          2.0099830163       -0.6165097647        4.3489928875
 H          1.0928902640       -0.3672310509        4.5481104031
 H          1.9359950164       -1.4568282027        3.8506053386
 O          0.7430929215        2.6616660261        0.2651139303
 H          1.5144534314        2.1246924950        0.0086158683
 H          0.4413949495        2.3245816354        1.1270323572
 O         -5.9656441091       -4.3373535189       -0.2068333946
 H         -6.3633491831       -3.5288580594        0.1491402641
 H         -5.8661139837       -4.1848675698       -1.1595048010
 O         -0.6445569940        0.0018797459        3.9106168418
 H         -0.7618217125       -0.5992327878        3.1498741727
 H         -0.3965296878        0.8709354558        3.5420736827
 O         -5.6331272399       -1.7144275403        3.0332195955
 H         -5.9798795761       -1.7872152506        2.1288432921
 H         -5.9201486279       -0.8398363950        3.3493826354
 O          3.9389680070       -0.8190034844        0.2468018058
 H          4.3479522815       -1.1315179273        1.0806135540
 H          4.3472245941       -1.3732748122       -0.4351187093
 O         -1.3321891555       -1.5923152806        1.8033839197
 H         -1.4749374744       -0.9773068080        1.0587147843
 H         -1.0232608490       -2.4276580614        1.4154321710
 O         -2.6768886160       -4.4125071791       -2.5782494864
 H         -1.8262632469       -4.7726014341       -2.9286331586
 H         -2.6753025165       -4.5791641282       -1.6314017808
 O          2.4573486530        3.5001710848        2.5335796876
 H          2.4949848754        2.5375625115        2.3789299081
 H          2.5920765438        3.9086597388        1.6593617676
 O         -0.8819357749       -3.9226370661        3.8128808737
 H         -1.7973868580       -3.5969227918        3.7070878376
 H         -0.7840158304       -4.2029106503        4.7221176848
 O         -3.0746670095       -2.0483640108       -0.4750207980
 H         -3.2266844236       -2.9248438725       -0.0693708638
 H         -2.1527941562       -2.0141844178       -0.7806863757
 O          5.9625326885        3.8270265017        0.0690881378
 H          6.8015566813        4.2818739932        0.1464476092
 H          6.1852901545        2.8457257957        0.0949521907
 O          3.5513967028       -4.1934048484        2.0921718892
 H          3.5006694194       -4.2763264497        1.1297992431
 H          2.7672294791       -3.6870036326        2.3655248029
 O         -6.6264376692        1.1987457028        0.8425749803
 H         -6.4020419252        2.1401223374        0.9098004640
 H         -5.7495423472        0.7189543564        0.9096989618
 O         -6.4299532906        0.8678692505        3.5651593995
 H         -5.8107235792        1.5735037400        3.7673664607
 H         -6.7030834255        1.0022662555        2.6371393932
 O          4.8832819676       -0.6890962159        4.4689226991
 H          5.0861514437        0.0677744711        3.8908658664
 H          3.9359635367       -0.6448698782        4.6480514711
 O         -6.6580045180       -1.6923702223        0.4158504532
 H         -7.2170366578       -0.9266312388        0.5707842706
 H         -6.1305851950       -1.4675749628       -0.3824558472
 O         -1.2634948576        5.8394445023       -1.2169610007
 H         -0.6978957296        5.8800111516       -0.4259415963
 H         -2.1263877273        5.5063225260       -0.9215433136
 O          1.1489846262       -0.9480696347        0.5054772436
 H          1.6059530855       -1.3019631046       -0.2734256237
 H          0.3400190843       -0.5108767062        0.1959128657
 O          5.0233966222        1.0449176908       -2.2297500386
 H          5.2533674764        1.9374577341       -2.5657952972
 H          4.1594717352        1.1465364739       -1.7799699821
 O         -4.0480654621        3.1191134542        3.3799568854
 H         -3.2640674585        3.6256517550        3.1266644224
 H         -3.7315107759        2.2172240488        3.5707408928
 O          0.8316211084       -2.4826059514       -4.1639853588
 H          1.3119119903       -1.9040551442       -4.7711293664
 H          1.2981689804       -2.3766856044       -3.3049717259
 O         -5.2147418921       -1.2798659629       -1.8407686042
 H         -5.3945869197       -2.0551911149       -2.3867507034
 H         -4.3522449846       -1.4629111606       -1.4086944777
 O         -0.8333555020       -4.2512992818        1.1093945451
 H         -1.7604463883       -4.4777884423        0.9255163077
 H         -0.6923789757       -4.4507628911        2.0455705062
 O         -1.8735662576       -2.0671447699       -3.8424730625
 H         -2.3188634467       -2.8979430627       -3.6170502410
 H         -1.0308549007       -2.2830642528       -4.2738844096
 O          5.0755413275        1.0693717858        2.3655921798
 H          5.1948244481        1.9925293212        2.6766236704
 H          4.1209131409        0.9553839664        2.1772017826
 O         -2.2065016575        0.4542550128       -2.6658235701
 H         -1.5656672879        0.9521505872       -3.2086159214
 H         -2.3392423152       -0.3908051197       -3.1143938161
 O          7.1080359785       -1.5283108002        0.2708516873
 H          6.6108122388       -1.7561596511        1.0792259195
 H          7.1163608645       -0.5595362129        0.2323708318
 O          5.2442168456       -2.0903832220        2.2011205562
 H          4.7593564073       -2.9376372845        2.2567869130
 H          5.2117859149       -1.6942958571        3.0960267861
 O         -5.3243983944       -3.8635652848       -2.9116780137
 H         -5.7074427174       -4.4062291248       -3.6006153778
 H         -4.3773003959       -4.0919915796       -2.8610929270
 O         -5.6342143282        3.7717420281        1.3462273614
 H         -6.2487664701        4.4394785751        1.6508789983
 H         -5.0802590636        3.5244603462        2.1271963294
 O          0.7970403956       -4.3769982222       -0.9805068445
 H          0.2830734004       -4.4564933931       -0.1543981186
 H          1.7272099707       -4.5001607174       -0.7535280908
 O          2.4090177442        0.8195246868        2.1424656927
 H          2.0507261134        0.1818771714        1.4953876846
 H          2.2985903301        0.3819209773        3.0154780194
 O          2.3342641061       -0.4199105625       -5.3431452673
 H          2.1871199878        0.5343721157       -5.1077155705
 H          2.5592478333       -0.4231188496       -6.2731057909
 O          0.4388748274        5.3004831620        0.8677446670
 H          1.3025332676        5.7154676178        0.9147008397
 H          0.6171765790        4.3668340175        0.6254588001
 O         -3.2729572681        0.5436904205        3.9288077262
 H         -3.7986171930       -0.0368496639        4.4809267639
 H         -2.3264401174        0.3230626514        4.0753779656
 O         -3.2984047278       -2.9423523508        3.0262847734
 H         -4.1788350156       -2.5233333580        3.1475273554
 H         -2.7403132770       -2.2643043113        2.5944901127
 O          3.5891395594       -4.4060030217       -0.7232920961
 H          4.3088181760       -3.7524569342       -0.9020894635
 H          3.9696114278       -5.2649810800       -0.9093078490
 O         -3.3927815007        4.3532729559       -0.2954892172
 H         -4.2723602128        4.3495852895        0.1085481877
 H         -3.4887776017        3.8171856037       -1.1196340411
 O         -3.5044763194       -4.3822342917        0.7565557423
 H         -4.4335806848       -4.5178574324        0.4513152303
 H         -3.5811741534       -3.9936324366        1.6565085854
 O          6.4264384581        1.2520020072        0.1027413477
 H          5.8916022506        1.0451359201        0.9089354234
 H          5.9104011995        0.9956256693       -0.6861223320
 O          4.2493939620       -1.1512550875       -3.5028797534
 H          3.6915018387       -0.9032626485       -4.2577937311
 H          4.6249005620       -0.3176270944       -3.1474970298
 O          5.1585324866        3.6915773959        2.8646969554
 H          5.3980095315        3.9638951698        1.9695009946
 H          4.1911077755        3.7979773259        2.9404342591
 O          5.2903970762        3.6614630238       -2.6580815975
 H          5.5470152843        3.8716408875       -1.7449498834
 H          4.3517604857        3.8755483190       -2.7380807957
 O         -6.0490037185        1.3797547863       -1.9367344855
 H         -5.7691897347        0.4626887198       -2.0790921104
 H         -6.4254566094        1.3905522729       -1.0430083521
 O         -3.7835753504        2.8202245790       -2.4625464583
 H         -3.2205979821        2.0366185451       -2.5486610466
 H         -4.6857343179        2.4610882523       -2.3522433506
 O         -0.8445311626        2.2529382372       -4.1744110196
 H         -0.6224538822        2.7906107916       -3.3730821079
 H         -1.5397997641        2.7331343974       -4.6262617529
 O          2.3016055617       -2.0313057086       -1.9172185813
 H          3.0594432951       -1.6641011193       -2.4307586528
 H          2.6248259142       -2.8558516186       -1.5426973703
 O         -1.2907889092        0.4181124563       -0.0571895274
 H         -1.6315472031        0.3872308524       -0.9754755788
 H         -1.5542121205        1.2679999707        0.3014686818
 O         -3.9825633156        0.6088078837        1.2862888516
 H         -3.7122453133        0.5911639545        2.2199382985
 H         -3.5797894325       -0.1502716598        0.8559549648
 O         -2.5603981818        4.4451061309       -4.2859938368
 H         -2.1579737421        5.1668183902       -3.7988050354
 H         -3.1474594842        3.9873120015       -3.6595632837
