  611
      -1033.51232756
 H          4.3394018432        1.4924363411        0.2121033905
 C          3.4001558871        1.3368371266        0.7315097428
 H          3.5286290926        0.5247862774        1.4495735893
 C          2.2795835745        0.9727219033       -0.2499960055
 H          2.7052784667        0.7275307097       -1.2197514104
 H          1.6270701513        1.8386087460       -0.3612832079
 N          1.4567820340       -0.1577217090        0.1723049715
 H          2.0506389962       -0.9675413473        0.2844837646
 H          1.0459050010        0.0381776199        1.0759446497
 O          3.1207405780        2.5454994725        1.4242823851
 H          2.2795047930        2.4064858440        1.8941236159
 O         -0.4319124831        0.2070859727       -1.6286448422
 H         -1.0024285707       -0.5806376687       -1.5683846393
 H          0.2303841109        0.0838791834       -0.8949125252
 O         -7.8769833655       -3.8705320523       -4.5271994053
 H         -7.8213535473       -4.2821095340       -3.6408816836
 H         -8.6620985345       -3.3058514271       -4.4656691445
 O          3.4879952180       -2.3512943747        0.0859035463
 H          3.2958252268       -2.0487075649       -0.8168381352
 H          3.9566513752       -3.1996723234       -0.0592820309
 O         -0.6426525866       -3.8412242809        3.9800894802
 H         -0.2874672908       -2.9365866432        3.8192453927
 H          0.1399730984       -4.4332208291        3.9553523224
 O          2.1606818750       -5.4105397738       -1.2114943022
 H          2.0857974479       -6.0350707121       -1.9643733473
 H          1.6399388560       -4.6166691809       -1.4226872740
 O          3.0369871242       -5.1284593744        1.6854364064
 H          2.2834694313       -4.5995021118        1.3553418445
 H          3.7626264321       -4.4831515371        1.8096736951
 O          4.2417768077       -0.9034518859       -4.4718764094
 H          4.7738391454       -1.4863115359       -3.9115267918
 H          4.5315055969       -1.0582893115       -5.3784398059
 O         -1.2945601342       -2.3005679261        1.4538278034
 H         -0.3584196559       -2.5826776248        1.5496346854
 H         -1.4445697270       -1.6165745861        2.1309952110
 O         -3.4807245883       -7.6544249615       -0.9233154152
 H         -2.5607273761       -7.6215919412       -1.2195876223
 H         -3.4961922098       -7.3490328335       -0.0021237960
 O          6.5151707982        1.9422228031        3.7976676538
 H          5.9968626598        2.7384448759        3.6137970562
 H          6.8878917642        1.9954065031        4.6854893306
 O          3.2184584128        1.5215119047        4.2007915869
 H          3.8944903929        0.8833165244        3.9135053854
 H          2.4792974323        1.4468480017        3.5828446155
 O          1.7434352850       -7.2087976132       -3.1468257347
 H          1.4832093037       -6.6048604743       -3.8736789128
 H          0.9125995053       -7.5735951673       -2.8044914466
 O          2.7911076975       -1.5799768943        2.8016254914
 H          3.5397517624       -2.1426464047        2.5220860506
 H          3.0645183031       -1.2683203682        3.6804290798
 O         -5.6257809209       -2.8192114359       -3.0432181218
 H         -5.8598189013       -3.1768272577       -2.1752532929
 H         -6.3382298299       -2.1755217740       -3.2173962074
 O          5.0991120408       -1.0669089764       -7.1795317461
 H          4.9697853058       -0.1014843896       -7.1834636042
 H          4.2326712503       -1.4752537725       -7.3238545064
 O          3.3087380228        1.5396228617       -3.3521996684
 H          4.1544067375        1.9588148793       -3.1234540427
 H          3.5407107732        0.6889156392       -3.7575592399
 O         -1.0875469976        1.0744621226        1.0230726542
 H         -1.7496407524        1.6947891259        0.6841955382
 H         -1.5413088641        0.4932792068        1.6383563416
 O          0.8567203401       -3.0643810000       -1.2753295704
 H         -0.0099906270       -2.6506972390       -1.3968135604
 H          1.5313379057       -2.4969111768       -1.7129158577
 O         -1.9366384835        3.0929482849       -6.1064351670
 H         -2.8961342817        3.1639910417       -6.1895573847
 H         -1.7818332433        2.3536845336       -5.4722730702
 O         -6.8854374347        6.4584904512       -1.3510448516
 H         -5.9872343180        6.8029708915       -1.2382340246
 H         -6.8498961980        5.9065799309       -2.1513743578
 O          4.9055623705        4.0604185176       -0.1892812297
 H          5.5279104768        4.8179192501       -0.1391876288
 H          5.3398167619        3.3487172902        0.3145253403
 O         -2.2850418020       -0.4163356377        3.0814501118
 H         -2.9857491416       -0.8484321614        3.6152552326
 H         -1.6302289048       -0.0709695821        3.7049963426
 O          4.8364374577        3.9749928771        2.9680049335
 H          4.9294599857        4.8453589681        2.5230308777
 H          4.3486280437        3.3879583973        2.3596200870
 O         -6.5299555748       -1.7939561320       -5.7419846564
 H         -5.7428930119       -2.1062506960       -6.2264798819
 H         -6.9264030594       -2.5770694450       -5.3213027550
 O         -3.9218493608       -4.1025535912       -0.9938679126
 H         -4.0840030496       -3.2931326435       -0.4723879064
 H         -3.1263067952       -4.4990554695       -0.6113254692
 O          5.0491760516       -4.8270992016       -4.2536383935
 H          4.8780651314       -5.5593789913       -3.6371716663
 H          4.1815822446       -4.3984318986       -4.4279522268
 O          7.0135014253        5.1369677877       -3.5279017490
 H          6.5343804599        5.9444375991       -3.3134107586
 H          6.4214274998        4.4097219107       -3.2365842655
 O          2.8024626085       -1.7587141122       -2.4272628770
 H          2.9667533066       -2.4168789621       -3.1355665954
 H          2.2997858891       -1.0450475712       -2.8901743750
 O         -6.5723327053        2.6341803184       -0.4832014138
 H         -7.0667453275        2.3193652865       -1.2892794846
 H         -5.8658160323        3.2492294513       -0.7515733011
 O          5.1128178732        0.5843702988        6.4896347146
 H          6.0691393208        0.7317445416        6.4433893143
 H          4.7515292916        1.4788323448        6.5290125641
 O         -2.3367943275       -6.5393026339        3.9485933405
 H         -2.0084996603       -5.7207354810        4.3307189543
 H         -1.5291319254       -7.0039358312        3.6361565434
 O          8.8603214279        4.8303184746       -1.5583799147
 H          8.3429749005        5.0162186029       -2.3665938622
 H          9.3024170567        3.9861894740       -1.7438701774
 O          5.0097097187        0.0833838830       -1.8183038669
 H          5.3481765695       -0.1902076994       -0.9463367359
 H          4.4071138805       -0.6112670523       -2.1066090183
 O          2.1186806045        0.6594593577       -5.9497768535
 H          1.4465127103        1.1361132186       -6.4671179069
 H          1.7273527366        0.4358590201       -5.0824255647
 O         -2.5141400602        2.8744473137        3.2821833961
 H         -2.5876603632        3.3587299945        2.4412076959
 H         -2.4383280352        3.5734297668        3.9632905724
 O         -9.3556869805        4.0749784465       -2.6578929109
 H         -8.6520256597        4.4796842558       -3.1791721533
 H         -9.1931841006        4.3757931559       -1.7430998450
 O         -7.4499575917       -0.9292589187       -2.8079408437
 H         -7.5384537888       -0.1733260101       -3.4137110902
 H         -7.0376791776       -0.5835042209       -1.9908363832
 O         -5.2859251604        2.3924639834       -3.3019406980
 H         -4.9530130682        2.6500401087       -4.1809110677
 H         -4.5053774077        2.0573758931       -2.8183134576
 O         -6.0434510214       -0.0497489814       -0.6761103981
 H         -6.4116373046       -0.4891510486        0.1174772255
 H         -6.1059373929        0.9044667633       -0.5280755924
 O         -3.1525854102       -3.7643357638        3.0618455336
 H         -3.4351741678       -2.9972744030        3.5837037563
 H         -2.2078275931       -3.8839861178        3.2558769612
 O          5.1924132821       -6.4010510350        3.0319527345
 H          4.2519054951       -6.3279255059        2.8404863382
 H          5.3584188809       -5.8275516602        3.7922834130
 O         -9.7402425498       -2.1015320674       -3.4631481130
 H         -8.9289756934       -1.7237654473       -3.0545001416
 H        -10.1375877715       -2.6915714646       -2.8072228809
 O          2.2620961387        5.1413384950        1.2365319404
 H          2.8678025262        4.4028229797        1.1033685917
 H          1.3688891398        4.7508725513        1.1758403054
 O          5.6227084737       -0.9183965211        0.6146997902
 H          6.3166501792       -1.5487336533        0.3577996377
 H          4.7838798681       -1.4246698533        0.5444292933
 O         -1.9707398906        5.3388612223       -1.0684771559
 H         -1.9896567902        6.0588238608       -1.7227013038
 H         -2.1892035333        4.5334677702       -1.5710367359
 O         -6.2217341302        2.7360617379        2.2553002337
 H         -6.3892535695        1.8891316171        2.7130010134
 H         -6.3432301158        2.5818583472        1.3080652349
 O          4.2881018060        3.2861619490        6.8670745512
 H          4.3221429195        3.9439376335        7.5605234291
 H          3.7693511288        3.6914980174        6.1167637137
 O          6.8075633275        5.9245790582       -0.1950357533
 H          7.6008762552        5.5105314346       -0.5855288110
 H          6.4005513345        6.4328446969       -0.9127181555
 O          1.6025345136       -5.2685945788        3.9859052814
 H          2.0822520718       -4.7750571060        4.6812420274
 H          2.1417715544       -5.2133085750        3.1743714392
 O         -9.1819556275       -0.2008628812       -0.4637640498
 H         -8.8491574966        0.2425447903        0.3278846872
 H         -9.1893960400       -1.1454653822       -0.2352332668
 O         -0.3546795149       -2.4612612023       -4.0701989408
 H         -1.2462832743       -2.0769834224       -4.1897100477
 H         -0.4498387280       -3.1950564633       -3.4456266752
 O         -2.4526132140        4.8120107794        1.5143200008
 H         -2.4156264104        5.5480330404        2.1550872101
 H         -2.4363191050        5.1868608520        0.6177871397
 O         -4.0680707195       -2.3434934675       -6.8200008554
 H         -3.5227972975       -2.0667549972       -6.0436664328
 H         -3.9894176652       -1.6259233523       -7.4522717836
 O         -1.5688051044       -4.7850993712        0.2215350632
 H         -0.8135025583       -5.4104514261        0.3355310402
 H         -1.4074726841       -4.0219449173        0.7929567496
 O          5.1750533825       -0.2247670767        3.2883736968
 H          5.3755513719       -0.4624883463        2.3639018650
 H          5.7675578051        0.5461041733        3.4684253403
 O          0.9336817321        1.5274789420        2.6918351982
 H          0.3977812960        1.3581483440        3.4898026604
 H          0.2721709904        1.5868244683        1.9715397373
 O         -7.8983223067       -4.9309497570       -2.0203836881
 H         -7.5351072298       -4.2335692362       -1.4262242376
 H         -7.2617801173       -5.6576225027       -1.9505955660
 O         -2.5094083224       -6.7895416394       -4.2625635839
 H         -3.4290860904       -7.0055485774       -4.1001247811
 H         -2.5041828008       -6.2289254072       -5.0474659087
 O          0.5962763457        4.1768552359        3.8490466927
 H          0.4899840947        3.6955142161        3.0150265163
 H          0.5263055401        5.1308653854        3.6149682070
 O          4.0264766665       -7.1962664188        0.1467322558
 H          4.6740241425       -7.5630418932        0.7493256113
 H          3.5620650180       -6.4864314794        0.6261386513
 O          6.5371475626        2.2155548204        0.9247662040
 H          6.7193107871        1.4481542768        1.5060088117
 H          7.2838434458        2.8233238724        1.0939456153
 O          8.2530917839       -3.9725418571       -2.3777403121
 H          7.9728537927       -4.8904482506       -2.1795878147
 H          8.0630096917       -3.8489325875       -3.3195771865
 O         -3.0764719434        1.2620983485       -2.2719178206
 H         -3.3822456428        0.3315478236       -2.2058507046
 H         -3.0326581996        1.6066139301       -1.3513798114
 O          2.5174269130       -1.9080145087       -6.6813205495
 H          1.6239002793       -2.2117640370       -6.9278199085
 H          2.3995401052       -0.9751244966       -6.4014405061
 O         -4.7354991214        4.5572772590       -0.3655793324
 H         -4.3773564706        5.2907250037       -0.8917687665
 H         -4.9996196835        4.9781779228        0.4751575300
 O         -4.2189630403       -1.6446624298        4.3590236840
 H         -5.0600131209       -1.9352312821        3.9539536715
 H         -4.4589600530       -1.3410209258        5.2521721597
 O         -4.9556739319       -0.0744194217       -4.4046997008
 H         -5.6232474093       -0.6969897986       -4.7526313276
 H         -5.4210441163        0.6674458413       -3.9891688438
 O         -1.3151777211        1.1681932455       -4.3762312984
 H         -1.8350309842        1.0108492267       -3.5742173765
 H         -0.4621273000        1.5655387273       -4.0906778031
 O          6.5140037066        4.3007662666        5.3691002063
 H          5.9969038780        4.7062084893        4.6670530184
 H          5.8806791429        3.8453509144        5.9420919197
 O         -0.8684040727       -7.3970041354       -2.1502589174
 H         -1.3517517613       -7.6846132364       -2.9347893871
 H         -0.8750546486       -6.4173204453       -2.2476953419
 O          0.8554212623        2.5452010558       -3.7024666387
 H          1.6738717447        2.0334719002       -3.5664898453
 H          1.0543520313        3.1327809370       -4.4589051892
 O         -8.1551054569        1.6814493914       -2.2877698174
 H         -8.7474878589        2.4191500445       -2.5130407768
 H         -8.6609956284        1.0195601906       -1.7931057154
 O          1.6467132788        9.0780980309       -0.8863382552
 H          1.3779481899        8.5766596333       -1.6984135742
 H          1.9402182123        9.9418093056       -1.1707900916
 O         -5.1832181296       -0.9172556525        6.8157812915
 H         -5.1007858622       -1.8834994523        6.9689066353
 H         -6.0904436931       -0.7809347981        6.4924205776
 O         -0.0200667278        3.7417945535        1.1447614181
 H         -0.8813718871        4.1639603329        1.3255423217
 H         -0.1194195943        3.3684161469        0.2485238708
 O         -3.9965046067       -1.1688910455       -1.8586236641
 H         -4.6781694034       -0.7935138212       -1.2656947629
 H         -4.5100691062       -1.7759712669       -2.4460567361
 O          7.2092439946       -3.0395443504       -0.0554361844
 H          6.8506996735       -3.9029684778        0.1974217484
 H          7.6668269328       -3.1895181117       -0.9008024755
 O         -7.2094240081       -1.1564008066        1.3936741928
 H         -6.8699641711       -1.7082277832        2.1248429534
 H         -7.6560877516       -0.4056055206        1.8057789717
 O          3.0811554920        7.0199936133        3.9781258826
 H          3.7694688383        6.9819322466        3.3041315050
 H          3.1126074440        6.1596706214        4.4337092535
 O          1.1341040465       -3.2796076822        1.3335834232
 H          1.7592898336       -2.6330878874        1.6968976492
 H          1.1421232183       -3.1753693576        0.3531811581
 O          0.8869154278        7.5043188471       -2.8745743526
 H          0.7526187118        6.7645413291       -2.2296571630
 H          1.6304278651        7.1859271354       -3.4062445050
 O         -0.7405156142        5.0195853647       -4.7250189364
 H         -1.1815643936        4.4433471557       -5.3849266082
 H          0.1917834770        5.0193619903       -4.9705143671
 O          0.0450436356        3.2214575986        6.2981595521
 H          0.8906269749        2.7630573039        6.4709474912
 H          0.1848176441        3.7710975339        5.5043903271
 O         -3.2872662904        2.3465064043        0.1208877682
 H         -3.8767943318        1.7550061670        0.6192219748
 H         -3.7212883470        3.2157638459        0.0297827497
 O          0.2513319258       -1.3548700640        3.7431965191
 H          0.3525024274       -1.0114962639        4.6447399626
 H          1.1376492193       -1.3727742286        3.3486114601
 O        -11.4006647215        2.1275729675       -2.8541593824
 H        -11.0541053489        1.4854921707       -3.4940983644
 H        -10.8571332479        2.9214706152       -2.9279227596
 O         -6.7077264273        4.6500874651       -3.4330675454
 H         -6.3209585909        3.7826574188       -3.1876797831
 H         -5.9558626270        5.1309677700       -3.8200899984
 O         -2.8303994756       -1.6847169477       -4.5570758387
 H         -3.1124876147       -2.5401193054       -4.1560133476
 H         -3.4752586989       -1.0141969869       -4.2803592022
 O        -10.4408426713       -4.1624324939       -1.7348320641
 H         -9.5639361925       -4.5885756195       -1.8536101817
 H        -11.0913186151       -4.8628308912       -1.7140940235
 O         -2.6692537827        7.7540331804        0.8721402810
 H         -1.7056203225        7.6805064652        0.7317436485
 H         -2.7974200312        7.5986375497        1.8134114524
 O          0.1911537741        1.9287997017       -7.3826858987
 H         -0.2968925178        1.0844211200       -7.4224240082
 H         -0.4867825092        2.5566868110       -7.0888547381
 O          5.4344757789        3.1548820333       -2.6345266486
 H          5.1754352388        3.5528355468       -1.7727360686
 H          6.1376386189        2.5099806383       -2.3821251728
 O          7.1752164482       -6.3754613848       -1.8324842094
 H          6.3368539190       -6.6355294158       -2.2338449835
 H          7.0133172409       -6.3209781039       -0.8797564525
 O         -8.8328876444       -2.9114021549        4.8156312794
 H         -9.4425726018       -2.7301413216        4.0267672774
 H         -9.4161120495       -3.1842772179        5.5237599503
 O          2.8084371427       -3.7352707176        5.8308694081
 H          2.0998041990       -3.6852530842        6.5028513342
 H          3.0028032529       -2.8026633175        5.6175145279
 O         -1.8761649689       -3.0860132542        6.2359024953
 H         -1.9352343467       -2.1249438430        6.1578445150
 H         -1.4498835989       -3.4084155471        5.4140733625
 O          7.2944366576        1.6507400695       -1.5260403609
 H          7.0096075902        1.7758932497       -0.5903394050
 H          7.2644642976        0.6927542448       -1.7180211978
 O         -0.4685392985        2.8844980980       -1.3820341565
 H          0.0957753019        2.9544119869       -2.1691776029
 H         -0.6500018650        1.9325817662       -1.3080747782
 O         -7.8120456645        0.5759785819       -5.0745398359
 H         -8.7791829188        0.5111570017       -5.0054981875
 H         -7.5036905985       -0.1981986002       -5.5693497615
 O          3.1860186378       -1.0730156378        5.4678055602
 H          3.8998119121       -0.4899773890        5.7874999844
 H          2.3800685028       -0.7770093964        5.8993828378
 O         -6.6332208666       -3.1553687491       -0.5234186954
 H         -6.1582868084       -3.6720141383        0.1494840672
 H         -7.1354992262       -2.4871642450       -0.0389716567
 O         -5.5843804864        6.0466094123        1.7668426378
 H         -5.6439711630        6.9482087255        1.4524238038
 H         -6.4856195925        5.7653904510        2.0504284334
 O          8.9977094803       -5.1981576533        1.6296523521
 H          9.4527053391       -4.3973887809        1.3135104443
 H          8.8306088917       -5.0714080784        2.5774643531
 O          5.1364755073        6.4405365338        1.9611394616
 H          4.4984214183        6.7435465544        1.2856205137
 H          5.9799424553        6.4037524211        1.4924877933
 O         -4.8975997781       -5.2366092057        4.4968271328
 H         -4.4595948018       -6.0796226893        4.6359981141
 H         -4.3151288197       -4.7589603092        3.8629281947
 O         -3.9489410741        1.2121768440        4.7435355584
 H         -4.3482403859        1.6819503565        5.4995885602
 H         -3.5226981155        1.8682347597        4.1540642806
 O          2.9786972940        5.8443561918       -3.6259637950
 H          3.3811072142        5.3823233474       -4.3702138962
 H          2.7930670515        5.1568786017       -2.9545227870
 O          0.6955688139       -3.0808680401        7.3630917285
 H          0.6756044391       -2.1325475726        7.1649183702
 H         -0.2034280559       -3.3879876470        7.1784163295
 O          7.3540771246       -2.4192192159        2.5392361647
 H          7.4482916457       -1.4375756922        2.5867260111
 H          7.6293037037       -2.6582713282        1.6384573707
 O         -4.5800628728       -3.5169825909        6.6732504924
 H         -4.8372345773       -4.1250127403        5.9597351564
 H         -3.6088311745       -3.4840579802        6.6379234213
 O         -1.8591946585        7.0114145197       -3.2361073456
 H         -1.5267090636        6.3095579434       -3.8305106787
 H         -1.0713597853        7.5521742739       -3.0873864769
 O          4.6822729135        1.4910604801       -6.2330443168
 H          5.2221402983        1.2302237115       -5.4568617041
 H          3.7693296499        1.1936314221       -6.0494824060
 O          7.6517014973       -0.9335138055       -2.0941314514
 H          8.4559145554       -0.9392019579       -2.6498373075
 H          7.0244962882       -1.6068882118       -2.4098630332
 O          7.6958674198        0.1659045237        2.2434855579
 H          8.2089116828       -0.0607867485        1.4396085429
 H          8.3000940389        0.6629450459        2.8322961770
 O         -6.4316964936       -2.7423529069        3.3685037245
 H         -6.1956969198       -3.5730623879        2.9161402591
 H         -7.2077132984       -2.9069824625        3.9168677252
 O         -0.6358920003       -5.1888845612       -6.8913689928
 H         -0.4395120609       -4.2577824416       -7.0941666398
 H         -1.5995813081       -5.2425337892       -6.8308622128
 O         -3.2879418718       -4.0495992879       -3.5502488014
 H         -3.6420563179       -3.9417359155       -2.6428733929
 H         -3.9912687072       -4.5095498405       -4.0464662810
 O         -0.9899910047       -4.7460646370       -2.5438777133
 H         -1.8579411368       -4.6502521415       -3.0028280856
 H         -1.1335226345       -4.4696126775       -1.6239677235
 O         -4.9515199986        1.9719460563        7.1066038529
 H         -4.1080587115        2.2456873831        7.4982376437
 H         -5.1097635467        1.0529502872        7.3555308495
 O         -4.1696410263        7.0915410151       -1.2619448705
 H         -3.6748648509        7.3616399415       -0.4593012779
 H         -3.6190943198        7.3506462562       -2.0057120861
 O          8.9087305530        3.8931767042        3.8182420028
 H          9.1476118769        2.9542850176        3.9268111819
 H          8.1205294699        4.0462994575        4.3564958409
 O          7.7480247698        1.3050655620        6.2392276925
 H          8.4178330865        1.9706466907        6.3988119674
 H          8.2111472706        0.5075721856        5.9287137615
 O        -10.4836574666        0.1623518349       -4.6142047115
 H        -10.3131274502       -0.6886595116       -4.1440740136
 H        -11.1416297511       -0.0195858114       -5.2844416425
 O         -4.6559951840        3.3067947009       -5.8408548628
 H         -5.6243442183        3.2201009243       -6.0262674516
 H         -4.5395651179        4.2183927678       -5.5310316573
 O         -8.6735273345        1.7196144086        4.5845959494
 H         -9.4149365743        2.3478287791        4.4520782698
 H         -7.9601307670        2.2925319525        4.9431849747
 O          9.4396007693        0.2440394652       -5.6011128548
 H          9.1204450539        1.1505398012       -5.5072419164
 H          8.6504903918       -0.3154597420       -5.6994531098
 O          0.6437462980        5.5822016687       -1.1095619009
 H          1.2981845203        4.8762249052       -1.2431436684
 H         -0.2502202183        5.1845109755       -1.0876722043
 O          7.4728659453       -4.0346025691       -5.0351168708
 H          6.5868116054       -4.4172576322       -4.8633739225
 H          7.9407743998       -4.6459581789       -5.6021512512
 O          6.5557964969       -5.6184670274        0.7979859493
 H          6.0969766407       -5.9152337951        1.6063082454
 H          7.5079770203       -5.5486279891        1.0605202060
 O         10.3679563696        1.7408382684        0.1295573029
 H         10.4787469836        2.0392027853       -0.7807719225
 H          9.7950936295        2.4037466366        0.5690649440
 O         -7.6260950674       -0.5733424174        5.5519846266
 H         -8.1239858775       -1.3782155153        5.3214279233
 H         -8.2207145796        0.1872429825        5.4265899890
 O          1.6274372809        3.9668711503       -5.8104269678
 H          1.4509737477        3.4070221575       -6.5736128337
 H          2.5924580961        3.9412602793       -5.6498714072
 O         10.3309737315       -2.7914927452        3.8127262146
 H          9.8202509645       -3.5509111812        4.1231901731
 H         10.2263659419       -2.7822362961        2.8494497023
 O          4.8349716083       -3.3168832983        2.4893447088
 H          4.9065889586       -3.7154877471        3.3761365459
 H          5.7180078840       -2.9116464067        2.3532094700
 O          7.1872673524       -1.3366378250       -5.4533956700
 H          6.5593280398       -1.3142065188       -6.1951985877
 H          7.3617608189       -2.2735663199       -5.2722660582
 O          0.3414538954       -6.5875373953        0.3093297966
 H          0.0077554185       -7.2375979902       -0.3182113574
 H          1.1372653907       -6.1902124729       -0.1196178096
 O          6.1728568863       -1.8026348136        5.1431348171
 H          5.7964772758       -1.2781909970        4.3842347905
 H          5.8812831413       -1.3420609605        5.9327602828
 O         -1.6538407584       -2.1057095266       -1.1963376849
 H         -2.5707394464       -1.8565758064       -1.4378046918
 H         -1.6047617087       -2.0865896669       -0.2227400110
 O         -9.3366272021       -2.8516345013        0.3979691892
 H         -8.8359482761       -3.6246323030        0.7493558691
 H         -9.9186572849       -3.2296384981       -0.2777303252
 O          8.8188384578       -1.0030748637        5.1792028953
 H          7.9348365241       -1.3966945054        5.0647262808
 H          9.4398135978       -1.6203525586        4.7433885859
 O        -11.1691473572        0.0549380406        2.3496200666
 H        -11.6609826238        0.3482896537        1.5767245223
 H        -10.2790827812        0.4364890237        2.2649610330
 O         -5.4027352827       -4.4618023272        1.5318758312
 H         -4.8011783088       -5.2380009708        1.5457529765
 H         -4.8024723308       -3.6912661733        1.5033106671
 O         -8.1134156411       -5.0167995940        1.3663906081
 H         -8.2251451720       -5.2554848886        2.3017863061
 H         -7.1568620932       -5.0454133712        1.2379696356
 O         -7.2646518477        3.1279776854       -5.8166373455
 H         -7.3770367117        3.6650470145       -5.0211478640
 H         -7.4738895768        2.2096286720       -5.5571644436
 O          8.1404485319       -4.4077243517        4.1287053872
 H          7.4157572094       -4.7608703448        4.6474745835
 H          7.7790369046       -3.6302011495        3.6476457183
 O         -5.3898505540       -5.4487420738       -4.5369574320
 H         -6.1523740767       -4.8794488851       -4.6917962562
 H         -5.4983724731       -5.7912763857       -3.6231820701
 O          6.2964791024        0.8564966777       -4.1241656736
 H          5.8667451029        0.5689776103       -3.2927258975
 H          6.6899291117        0.0515571060       -4.5018864117
 O         -5.4529177488       -6.1421281344       -1.9348891680
 H         -4.8709057145       -6.8730437950       -1.6513122819
 H         -5.0270712363       -5.3563923428       -1.5440713536
 O         -2.7257847424        4.5412993743        5.3662323216
 H         -2.6863053923        4.0137714876        6.1723797999
 H         -3.6533665367        4.5597452424        5.0650510920
 O         -4.3809028445        0.3367085832        1.5300661145
 H         -5.1594210666        0.2726073771        2.1087251993
 H         -3.6130023223        0.2779633262        2.1214359005
 O         -3.4594649194       -6.2867383484        1.4995413510
 H         -3.1553610365       -6.4733354066        2.4098607926
 H         -2.7681151291       -5.7156808804        1.1159430460
 O         -8.6199827894        1.1393850553        2.0051089583
 H         -8.5470064693        1.3083037904        2.9753653936
 H         -9.1007705527        1.9185776603        1.6511581196
 O        -10.1733709319        3.7464028523        3.7236917208
 H        -10.4898080327        3.4911717299        2.8451587613
 H         -9.4288049648        4.3455154080        3.5626467838
 O        -10.4221433524       -2.4643440330        2.8581421739
 H        -10.8131644538       -1.5699398104        2.8032357561
 H        -10.0392241176       -2.6222106788        1.9731312859
 O          2.1179292605        1.5712985182        6.5486832972
 H          2.7968859737        1.9307413862        7.1269675366
 H          2.5415031077        1.5547327181        5.6421856105
 O         -2.5674492174        3.7857545758       -3.1262921260
 H         -1.7364774239        4.0095804509       -3.5738082019
 H         -2.5665216967        2.8369190686       -2.9432483980
 O          0.4000106667       -0.4970043185        6.3754838789
 H         -0.5455161891       -0.2956569482        6.4273245895
 H          0.8760613777        0.3298012816        6.5668407297
 O         -1.4099365513       -0.1602088950       -6.7424900056
 H         -2.3387326730        0.0637987544       -6.9382627488
 H         -1.3027917967        0.1042051994       -5.8099949487
 O          1.0804744212       -0.2841352632       -3.6772315556
 H          0.5212652696        0.0449996027       -2.9295113582
 H          0.6251867185       -1.0952514470       -3.9720473957
 O          0.0449919042        7.4663163953        0.6739081415
 H          0.5268162927        8.2245226309        0.3198644042
 H          0.3065381539        6.7095174415        0.1095995212
 O         -4.0264962911       -2.2323839326        0.8825699975
 H         -3.1718408209       -2.3831475557        1.3072744574
 H         -4.2420246075       -1.2868599478        0.9940604960
 O        -11.5186993373        1.1435351110       -0.3500212869
 H        -11.6838103975        1.5136606919       -1.2379945517
 H        -10.7647103719        0.5323613930       -0.4716060017
 O         -0.1020387932       -2.5264112230       -6.7626516977
 H         -0.1229173488       -2.6204352024       -5.7902690221
 H         -0.6227008140       -1.7221950728       -6.9381764287
 O        -10.2545580284        2.9946013190        1.0447920260
 H        -10.8408296158        2.3989243428        0.5181111855
 H         -9.9039240022        3.6687908009        0.4541105018
 O         -4.9462392262        4.4312273159        3.8963828828
 H         -5.2024134602        3.7277867509        3.2716790993
 H         -4.9557207148        5.2330541409        3.3566841843
 O          5.3096528397       -4.3261491452        4.9616345272
 H          5.7068548570       -3.4410547838        5.1271459735
 H          4.4668584311       -4.3210252423        5.4431603845
 O          2.7779346166       -3.4702728174       -4.4933988153
 H          2.0277042050       -4.0888300185       -4.5806257572
 H          2.7542657880       -2.8875537476       -5.2849882940
 O         -4.0099667757        0.5771299376       -6.8480927236
 H         -4.3251677477        0.3516922981       -5.9455169210
 H         -4.2179209745        1.5063257603       -6.9629678968
 O          2.6429932266        3.9024553089       -1.7121128903
 H          3.3533739691        3.9938187084       -1.0545654462
 H          2.7468719761        3.0396661150       -2.1288022454
 O         -7.6508064287       -5.4170297440        4.0219124233
 H         -6.6995833347       -5.4291122814        4.2217101488
 H         -8.0415876435       -4.6954327481        4.5276331921
 O          8.2201900829        2.6872999282       -4.6875916309
 H          7.8926771795        3.5909713752       -4.6446429963
 H          7.4696134473        2.1074923499       -4.4452483307
 O          0.0242680796       -7.3264130733        2.9940630913
 H          0.1702151750       -7.1407885333        2.0541879641
 H          0.6324877424       -6.7477699501        3.4750568304
 O         -3.3758730400       -5.0183978827       -6.4379697677
 H         -3.5638790846       -4.1042741623       -6.7040369069
 H         -4.1890738158       -5.3325941374       -6.0234070527
 O          4.6782944382       -4.4584612155       -0.8561115371
 H          5.2445957395       -5.0449150130       -0.3365674580
 H          3.8615913180       -4.9485808698       -1.0671601676
 O          5.6203736152       -2.6569844271       -2.7439564004
 H          5.3940241344       -3.0768858059       -1.9003661240
 H          5.5774184533       -3.4000481910       -3.3716964891
 O          9.0558281750       -0.5784020152        0.1561930119
 H          8.5485846328       -0.7523344752       -0.6608225198
 H          9.6227852816        0.2088306858        0.0221499529
 O         -2.4272822495       -0.2292345437        6.4285041693
 H         -2.8411621600        0.2355293559        5.6647957585
 H         -3.1705941391       -0.5634266557        6.9425777054
 O         10.0586893204       -0.4330609640       -3.0951572185
 H         10.1545059520        0.4671432536       -2.7452208917
 H          9.9896250210       -0.3061610784       -4.0663921352
 O         -8.3719094049        4.6213755210       -0.1743288091
 H         -7.7269193203        3.8797515719       -0.2099185774
 H         -7.8723142735        5.4087546229       -0.4859381851
 O         12.4198813067       -1.5991738194        2.1762716868
 H         11.7794556719       -2.0346502007        1.5868052589
 H         12.2611418482       -1.9722907276        3.0477777018
 O         10.6773175523       -2.8938100663       -1.6891214165
 H          9.8775186224       -3.3647119705       -1.9812732578
 H         10.6518608531       -2.0353905467       -2.1328442075
 O          4.2533235625        3.8818446682       -5.1508057837
 H          4.4974662146        3.1220611222       -5.7236241010
 H          4.6363313069        3.6599524576       -4.2895434784
 O          8.7647731462        3.6500466966        1.2059553067
 H          8.9604505264        4.4590660179        0.7292273828
 H          8.8544711297        3.8285778824        2.1765344521
 O          5.0658580547        6.8166552015       -2.1639677532
 H          4.3997831086        6.5415308459       -2.8196135795
 H          4.5244027678        6.9952524109       -1.3718245397
 O          3.0707638232        4.4167663919        4.8624739573
 H          3.7013352283        4.1571103460        4.1474941953
 H          2.1800637016        4.2075155979        4.5111036613
 O         -2.1852623540        6.6210528122        3.4929827565
 H         -1.2280026813        6.8039840061        3.4915546349
 H         -2.3389940117        6.0824621874        4.2791415430
 O         -7.8738457974        4.8702564660        2.4918566857
 H         -8.2731595257        4.8411483969        1.6042274382
 H         -7.3700070388        4.0354342809        2.5771403281
 O         -6.1423993056        0.3871558548        3.5264664535
 H         -6.7432778329       -0.0103826595        4.1826688598
 H         -5.3420464509        0.6354626972        4.0363378287
 O          4.4751857554       -6.9244953752       -2.5380432132
 H          4.3248660962       -7.0484461421       -1.5809371421
 H          3.6821427784       -7.2813713881       -2.9547924714
 O          9.5690720839        1.2503188178        3.8145521936
 H         10.4311829702        1.1998161522        3.3297560098
 H          9.5153144025        0.4573449608        4.3698587008
 O         -4.2561699233        5.5171427581       -4.2430676329
 H         -3.7710948755        6.3440406296       -4.2261695384
 H         -3.6932388921        4.8754733690       -3.7547720621
 O         -6.8266656444        3.3483636180        5.5812989339
 H         -6.2715528370        2.9460990387        6.2596114561
 H         -6.2441527373        3.8811732490        5.0168956987
 O         11.7718764848        1.0274448613        2.4110591665
 H         12.0985107799        0.1109153644        2.3192378205
 H         11.4746364382        1.2953622893        1.5298092756
 O          3.4183635117        7.1299980917       -0.0260890198
 H          2.8279914993        7.8766797050       -0.2017589236
 H          2.8584583304        6.3986562531        0.3240701000
 O         -2.2933265003        2.4218033755        7.3810070851
 H         -2.1748252135        1.4906480585        7.1307712528
 H         -1.4312123017        2.8384039587        7.2203636986
 O          0.5137148733        6.7473803008        3.2304925892
 H          1.4236734199        6.9852309912        3.5108379762
 H          0.4562503749        6.9808987943        2.2836222183
 O          0.7565702080       -5.2627646137       -4.6545035654
 H          0.0793269541       -5.0912793913       -3.9861100735
 H          0.2823436640       -5.3313929366       -5.5176466418
 O         10.2383007226       -2.8092508044        0.9342032095
 H         10.5703570078       -3.0194691742        0.0332740085
 H          9.7279669062       -1.9872726695        0.7612251180
 O          9.6596743119        2.2924703458       -2.4382736566
 H          9.4302491144        2.4906638816       -3.3650673605
 H          8.7861045883        2.0430518042       -2.0451004936
 O         -0.8551273346        1.3282530809        4.6360998048
 H         -0.5494051344        1.9522879760        5.3240256819
 H         -1.4207026315        1.8733958728        4.0548830233
