  249
       -422.61367012
 O         -2.8648397197       -1.3288693411       -1.7117764978
 H         -2.1372564274       -1.8514193461       -1.3107521824
 H         -2.4546002613       -0.7053946792       -2.3308888493
 O          5.7481834641        4.1965783713       -1.6086727031
 H          5.7466290399        4.7699119548       -0.8344744207
 H          6.3182624610        3.4415713341       -1.3881692179
 O          2.8585883270        0.9490577020       -2.7693923840
 H          3.3280146275        1.0576978650       -3.6051329962
 H          3.0634568252        0.0320936970       -2.4893850172
 O         -1.7189714104        0.7187410249       -3.1394291498
 H         -1.9356371164        0.5267065918       -4.0726281421
 H         -0.8655529212        1.1881453491       -3.1527449128
 O          1.6531199650        2.9051004259        0.7106192236
 H          2.3733834739        3.0254804000        0.0657600945
 H          1.9286895135        3.3514334383        1.5339718708
 O         -3.4542757002        1.6439451486       -1.2724798844
 H         -2.7740603903        1.4663616755       -1.9468733937
 H         -4.2365877038        1.1652840474       -1.6219888096
 O          3.6729741297       -1.5588770730       -2.1010260535
 H          3.1281826925       -2.3611796153       -2.1563478747
 H          4.5323460832       -1.8227183280       -2.4914455505
 O         -1.3850741556       -4.8429809584        1.3017934104
 H         -1.3812853824       -4.5059999528        2.2131886358
 H         -2.3212245332       -4.9161935951        1.0542403173
 O         -0.5617588484        3.3987582570       -0.7417545069
 H          0.1746444963        3.4219188106       -0.0988740043
 H         -1.3850427965        3.3680738086       -0.2178918561
 O         -2.6416281486        3.4032939963        1.0697387108
 H         -2.0002642840        3.3068428654        1.7950898633
 H         -3.1785744822        4.1699437669        1.3174343339
 O         -3.8537524811        4.2570337137       -1.5030719341
 H         -3.1998287345        4.7518201386       -0.9876756951
 H         -3.7024586282        3.3011072724       -1.3110717784
 O         -0.7729275937        4.0340422500       -4.5415054892
 H         -0.2747802700        3.3421144182       -4.0581254992
 H         -0.5436206351        3.9472448357       -5.4661425876
 O         -4.9482910801        1.6541233890        1.1418182908
 H         -4.2210881610        2.2414476458        0.8768303035
 H         -4.8255086609        0.8233460373        0.6302926416
 O          1.6816200491       -2.7991487478       -0.2897719533
 H          1.4044946627       -3.7200247542       -0.4684985983
 H          1.0936303332       -2.5237834758        0.4399800831
 O          3.2635898320       -0.0974752672        0.1411100256
 H          2.3582056602        0.1726696148       -0.1077217153
 H          3.5129917622       -0.7274004091       -0.5605200524
 O         -4.6950158630       -0.8017999399        0.1367710717
 H         -4.1714502658       -0.8336909075       -0.6908739826
 H         -4.1818167548       -1.3486238442        0.7533913214
 O          0.1253618768       -2.3264393032        1.8263714228
 H          0.3891134208       -3.0354296045        2.4455442607
 H         -0.8493956859       -2.3025899065        1.7927597000
 O         -1.0444478443       -3.0497446022       -0.8474791171
 H         -1.1486761143       -3.6871002651       -1.5708854569
 H         -1.1566344411       -3.5596036557       -0.0299861860
 O         -3.9229222684       -4.1265043476        0.4219635329
 H         -3.4215116201       -3.3366006956        0.6989893438
 H         -4.0795264479       -4.0220348188       -0.5392785319
 O          0.4768419090        2.2255302642       -3.0023913056
 H          0.2186819739        2.5665935323       -2.1278260741
 H          1.3205636926        1.7487385484       -2.8914257438
 O         -2.6668322798       -2.0583159802        1.6268766637
 H         -2.4797070996       -1.0655898946        1.5824779717
 H         -3.0717679377       -2.2455087844        2.4921537776
 O          0.5278385201       -0.0677983139        5.6242217079
 H          0.8056910299        0.6583215177        5.0354586576
 H          1.2059500529       -0.7569794215        5.5223008965
 O         -6.3724811277       -2.2907508325       -2.8896515205
 H         -5.9532697337       -1.4088858670       -2.8762915762
 H         -6.9134813219       -2.3037242777       -2.0853095057
 O          0.1106726377       -1.2904537058       -6.2707729487
 H         -0.4473986176       -0.5359399484       -6.4757596076
 H         -0.3850738395       -1.7714918944       -5.5772482542
 O          6.1411977634       -4.1982611929       -0.9644083433
 H          6.9825167774       -3.8522888400       -0.6504458365
 H          5.4458194395       -3.7020539977       -0.4792239686
 O         -3.5245236510        3.6732161586       -4.1612148051
 H         -2.5704574176        3.7902897029       -4.2881705225
 H         -3.7183843681        3.9621663769       -3.2500578118
 O         -5.3731736493        0.2621862655       -2.5356058591
 H         -5.1296138325        0.6061089026       -3.4135475451
 H         -6.2614057519        0.6386312440       -2.3328331872
 O         -6.0263605762        5.0137024543        0.0054899140
 H         -5.5474989508        5.0887253869        0.8443594156
 H         -5.3529965759        4.7786123631       -0.6596767044
 O          0.8539694546       -1.4315472044       -2.5434103963
 H          0.8141290159       -0.5473332493       -2.1627913356
 H          1.0624556083       -2.0187452426       -1.7887074103
 O          2.3758569961       -1.3749896509       -4.8466991436
 H          1.6486982550       -1.3172695900       -5.4990372621
 H          1.9260897644       -1.4242564725       -3.9798541729
 O          2.1496797879       -0.7102697443        2.4756080003
 H          2.7107815556       -0.5662428891        1.6866828689
 H          1.3874221859       -1.2462375574        2.1860034738
 O         -5.9127619407        0.6059763754        5.1251039111
 H         -5.6363634916        1.4804014880        4.8013231741
 H         -6.2523288758        0.1433679230        4.3380735531
 O          3.1512624167       -4.9552993511        2.0721671691
 H          3.7966211964       -4.3897229944        2.5144141122
 H          2.3245603641       -4.8041459726        2.5515455129
 O          8.9356404873        0.5346210451        0.6050529039
 H          9.5671650330        1.1501812347        0.9761983837
 H          8.2730282754        0.3502066309        1.3105869676
 O          4.7001116367        2.1158506606        0.7208929247
 H          4.1726166729        1.3261294617        0.4769640023
 H          5.5564603602        2.0022489337        0.2731939689
 O          4.8171646366       -2.8418481517        2.9633634332
 H          4.6766114650       -1.9518938156        3.3435067830
 H          5.7771143362       -2.9535655286        2.9035747744
 O          6.1128185454        0.0886452872       -2.7680892734
 H          6.3485207485       -0.8305773177       -2.9806031005
 H          5.5052571965        0.3475428722       -3.4803193750
 O         -7.2940576454        2.6677235855        0.2779910486
 H         -6.4576187007        2.2834201304        0.6072514230
 H         -7.0711128384        3.6100103076        0.1300824515
 O         -4.6556055201        1.4160211909       -4.8981343325
 H         -5.4133643980        1.6970722844       -5.4110268184
 H         -4.2025098960        2.2505975371       -4.6044034632
 O          1.3879398237        1.5985103875        3.6067320273
 H          2.2664855222        2.0107847804        3.6620325056
 H          1.5588070588        0.7781322585        3.0986170097
 O         -1.5371595246       -3.6520417742        3.9028636958
 H         -2.4838198030       -3.8090859311        4.0070252740
 H         -1.4527981986       -2.6802135375        4.0183316646
 O         -4.8915290330        2.7149357474        3.6490122945
 H         -3.9944742669        2.4137026617        3.8949101044
 H         -5.0799274261        2.2661663917        2.8054900306
 O         -8.4864041623        0.2446352560        1.0360201157
 H         -7.9628489830        0.0284297452        1.8237881585
 H         -8.2931288581        1.1725194685        0.8398520266
 O         -2.4476381526        1.6949388884        4.0391515919
 H         -2.0721560810        0.8125259409        4.2072708365
 H         -1.7137056556        2.3034698258        3.8847360755
 O          7.5716158896       -2.8352951682        2.5090932698
 H          8.2169478545       -3.4088479921        2.9201036895
 H          7.8148654170       -2.7602291587        1.5505233198
 O         -1.6187111577       -0.9502123050        4.3760333622
 H         -2.3797276398       -1.0087308194        4.9752983943
 H         -0.8377272204       -0.6781593636        4.9170320031
 O          4.2797052495       -2.7829681983        0.3502218834
 H          4.3487562255       -2.8385737128        1.3237644504
 H          3.3239728430       -2.8220250228        0.1191944800
 O          1.1320444190       -4.0111179770        3.6867518053
 H          1.6093266321       -3.3606561188        4.2336190847
 H          0.2671354627       -4.1505405355        4.0937982886
 O         -7.2230840908       -1.7404097986       -0.3217340899
 H         -6.3387378516       -1.3272859627       -0.2738735192
 H         -7.8294665534       -1.0899920285        0.0797537304
 O         -4.1476287946       -2.8934201858        3.7835998222
 H         -4.2551679668       -2.2512082394        4.5052393731
 H         -5.0031431162       -3.0220300110        3.3568646841
 O          4.0678020799       -3.5372654890       -4.7630204045
 H          3.5896069458       -3.9857905214       -4.0454184724
 H          3.4989854463       -2.7764878254       -4.9763136865
 O          2.6248196652       -4.1456290850       -2.5152964038
 H          1.7111062977       -4.4303678005       -2.5752106461
 H          3.0281505879       -4.6990651715       -1.8117552016
 O          3.6471170163       -5.6506114260       -0.5217876591
 H          3.5048900484       -5.3779731556        0.4058115757
 H          4.5914182590       -5.5581566009       -0.6852172587
 O         -2.4391259168       -0.0315134766       -5.6106016408
 H         -2.4890806910       -0.9386685983       -5.2844562019
 H         -3.3212444697        0.3654613099       -5.5099824379
 O          4.8069099601       -0.3349470659        4.0093642381
 H          5.6409793955       -0.1205869040        3.5592964180
 H          4.2932058768        0.4805224239        3.9390956879
 O         -0.4627745092        5.5851900751       -2.2491570847
 H         -0.4977049496        4.7297674252       -1.7580099986
 H         -0.6437134038        5.3455074024       -3.1671109048
 O         -3.9925921553       -1.0321360578        5.7945468877
 H         -4.0875777452       -1.1967650955        6.7319395887
 H         -4.6828272076       -0.3505810211        5.5629282601
 O         -2.1208762879        6.1145562192       -0.2061323769
 H         -2.6500867075        6.9114558334       -0.2051498458
 H         -1.5679314617        6.1305208325       -1.0150190998
 O          3.2256188743        3.2732900635       -1.4684319305
 H          4.1441789731        3.5809073963       -1.6205831842
 H          3.1465343930        2.4103095602       -1.9127753643
 O         -6.3658461534       -0.5306290722        2.6918628689
 H         -6.2628763372       -1.4600981228        2.4102140184
 H         -5.7740089428       -0.0094689372        2.1394069958
 O          2.4504621928       -1.8902393986        4.8413893157
 H          2.4469400446       -1.4439239423        3.9637508929
 H          3.3412300484       -1.7692683103        5.1756622005
 O          0.7339176500       -5.3294269010       -0.5269517253
 H          1.4685632231       -5.8924588997       -0.2695170677
 H          0.0774224189       -5.3494511133        0.1856445651
 O         -4.4604797325        5.0246782458        2.3591653542
 H         -4.4801764655        5.7775112856        2.9482171529
 H         -4.6892157341        4.2337277030        2.9046418404
 O         -7.7522920670        1.2468056452       -1.9370714456
 H         -8.3572855007        0.5742580692       -1.6171691935
 H         -7.6183578522        1.8655938925       -1.1833437879
 O          6.9476719650       -0.1585791197        2.2735164656
 H          7.2137701778       -1.0615536989        2.5122280817
 H          6.4076208429       -0.2561698668        1.4635192291
 O          8.1275751133       -2.2950822843       -0.0140284440
 H          8.8616569370       -1.6778871341       -0.0724392575
 H          7.3227899411       -1.7266171663       -0.1519046758
 O          5.9645447559       -0.8252903016       -0.1467840705
 H          5.8403592164       -0.4430577457       -1.0301104748
 H          5.2587825050       -1.4999918210       -0.0173063246
 O         -4.1704996785       -3.5809966989       -2.2133305183
 H         -5.0565657072       -3.3240075093       -2.5564450281
 H         -3.7122992668       -2.7142002977       -2.1267284737
 O          5.9334902723       -2.5758628718       -3.1478894462
 H          6.0789368872       -3.2812965816       -2.4883554388
 H          5.3959719015       -2.9815031945       -3.8682079946
 O         -6.0918833549       -3.0954174919        1.7510769949
 H         -5.3717758224       -3.5949628014        1.3158644715
 H         -6.6878906900       -2.8409914171        1.0211129613
 O         -1.2519916480       -2.2208620361       -4.1249487069
 H         -0.5763665498       -1.9065777571       -3.4939641244
 H         -1.4327205725       -3.1363244441       -3.8803379283
 O         -1.8612894390       -4.6801368079       -2.9295585176
 H         -2.7884471381       -4.4006121412       -2.7490562103
 H         -1.8420158000       -5.6351062439       -2.8826989465
 O          1.9009100896        5.5422040097       -0.8221056500
 H          1.2176031469        5.8377886022       -1.4418712948
 H          2.2614167022        4.7249340384       -1.2111127119
 O         -0.5693052132        3.3917164714        2.9189640997
 H          0.1970268886        2.8370068421        3.1600284467
 H         -0.2144394784        4.1902676054        2.4933192527
 O          6.9774044884        1.8662576893       -0.8398281570
 H          6.7458137886        1.3122932805       -1.6035777849
 H          7.7339982697        1.4252074832       -0.4151963569
 O          4.3195289856        4.8969899333        0.8081997260
 H          4.4096695709        3.9331453226        0.6798462699
 H          3.6740394789        5.2147232101        0.1649658140
 O          4.0240236155        2.2753333881        3.3584953134
 H          4.3242044674        2.1938898268        2.4303727637
 H          3.8766574832        3.2140806325        3.5023895910
 O          2.4990806724        4.5463506771        2.7365236714
 H          1.7872869222        5.1881091145        2.6529558628
 H          3.2243616066        4.8616729010        2.1565767992
 O          4.3774459292        0.3604426526       -4.9379396079
 H          4.8080644442        0.3331411472       -5.7912669747
 H          3.6791774259       -0.3407015304       -4.9528393832
 O          0.2035708139        5.5396469117        1.3579530015
 H         -0.6494944350        5.7711168001        0.9626250333
 H          0.8438453200        5.5476161560        0.6199666638
 O         -2.0197704771        0.4996627255        0.9275524893
 H         -2.4833262904        0.8800123858        0.1580545741
 H         -2.0886379332        1.1384680727        1.6430604412
 O          0.6492373555        0.5662575045       -0.3438950342
 H          0.8552857657        1.4101160833        0.0904225159
 H         -0.1682347228        0.2531686389        0.0642036327
 O          6.3109181493        2.9333218260       -4.1583192394
 H          6.6709470514        2.1649290713       -3.7097413599
 H          6.0864303051        3.5763918343       -3.4781404001
