  86
       -142.08380254
 H         -2.0462404353        1.2017757764       -0.4578978294
 C         -1.7600697741        1.9414080940        0.2935342518
 H         -2.1006774365        1.5972582200        1.2712467245
 C         -2.4191730232        3.2717196090       -0.0681623568
 H         -1.8842642479        3.7217915400       -0.9115148942
 H         -2.3532964170        3.9644789764        0.7834683552
 N         -3.7882638330        3.0061116403       -0.4961798390
 H         -4.2878243905        3.8739858560       -0.6518770207
 H         -4.2750715986        2.4876458514        0.2309252593
 O         -0.3532818978        2.0241356482        0.3591426823
 H         -0.0289733933        2.4666580533       -0.4732424213
 O          4.1746163279       -0.3636029144       -2.8787987208
 H          4.0305249800       -0.7017032982       -1.9684152164
 H          4.5073215731       -1.0970911481       -3.3963084525
 O          3.4669293782       -1.1829736402       -0.3946479459
 H          2.5844466340       -0.7558312516       -0.3525460327
 H          3.2623821783       -2.1381204323       -0.4281272097
 O          0.9054645030       -0.3503472430       -0.3100224683
 H          0.6118870776        0.4993954546        0.0583821182
 H          0.0812296951       -0.8394487459       -0.4828227396
 O          1.2010331230        2.7891200614        2.4202208518
 H          0.5481257012        2.5756008342        1.7263971988
 H          1.0826125925        2.0824102739        3.0744852918
 O         -1.4891774600       -1.0972246227       -1.3413643850
 H         -2.4249522355       -0.9983973004       -1.0765831994
 H         -1.3385672713       -0.4201930438       -2.0234565882
 O          2.4902785893       -3.6409181774       -0.6104566900
 H          2.7914168102       -4.5483716240       -0.6308284692
 H          2.0709048033       -3.4619639103       -1.5173043772
 O         -1.0503231278       -3.6815817164       -2.0584533776
 H         -1.0818359637       -4.1220237570       -1.1977001122
 H         -1.2799302646       -2.7499305225       -1.8760374902
 O          1.4249704608       -3.1494494476       -2.8868884046
 H          0.4973367096       -3.4351137074       -2.7238177141
 H          1.3721452254       -2.1838721138       -3.0378016594
 O          1.3919699809       -0.4184879393       -3.0069701755
 H          2.3200294998       -0.2027425774       -3.1872843262
 H          1.2857792039       -0.2724918673       -2.0432028335
 O          2.7537686198        1.6408744079       -1.4171373013
 H          3.5138909790        1.3741522181       -1.9377971954
 H          3.0660622669        1.8211630433       -0.5037768204
 O         -0.9462593308       -0.7990376232        1.9362159580
 H         -0.3049508573       -1.4942484271        1.6960728801
 H         -0.4467974754       -0.1967274604        2.5140365185
 O         -1.3808847311       -4.5218812443        0.6196457197
 H         -2.0675670548       -3.8257712741        0.7644191447
 H         -1.7643230171       -5.3494914784        0.9086132405
 O          2.1689635377       -1.5457988151        3.3582731540
 H          1.7121031343       -2.0967838416        2.7013748854
 H          2.9401748852       -1.1569116230        2.9107790706
 O         -3.7579750707        1.1895947544       -2.6097069973
 H         -3.7922020090        1.9334107244       -1.9725189789
 H         -2.8546788598        1.1690889792       -2.9528362794
 O          0.5872361586        0.4902905546        3.8216356594
 H          0.2766347190        0.4387750542        4.7255301209
 H          1.2354278289       -0.2573299709        3.7048717944
 O          1.9141082413        4.5968038162        0.1823385432
 H          1.5262024611        4.3971772835        1.0412105038
 H          2.7565651696        4.1308496168        0.1791049879
 O         -3.0298137649       -2.4907023078        1.0719753224
 H         -2.3136162119       -1.8542361733        1.2334205931
 H         -3.5460427267       -2.1079071330        0.3471042598
 O         -0.9050126967        1.0697028909       -3.0075445792
 H         -0.5482439006        1.9102211893       -2.6909486114
 H         -0.1297417852        0.5755940552       -3.3258805284
 O          0.7370426561       -2.9120035601        1.3726978929
 H          0.0354839618       -3.5697481374        1.2394110900
 H          1.3700577751       -3.0802761269        0.6512710161
 O         -4.0892756423       -0.6587945168       -0.7120265084
 H         -4.1375405592       -0.0908850739       -1.5138430679
 H         -4.3436644844       -0.0702731695        0.0216077896
 O          0.6396719910        3.1796097975       -1.7945719977
 H          0.9695483052        3.9508309317       -1.3008054874
 H          1.4257799078        2.5914015542       -1.8412405588
 O          4.2642152720       -0.3772998714        1.9793779011
 H          5.1850667434       -0.5865429273        2.1340535135
 H          4.0379328466       -0.7053834074        1.0723552601
 O         -3.4100322919       -0.6301446946        3.1881815054
 H         -3.6944060692       -1.5068439448        2.9040096455
 H         -2.4874050203       -0.5690906087        2.8832823073
 O         -4.8002955732        0.8863770398        1.4797772279
 H         -4.2779486221        0.4159048128        2.1727758934
 H         -5.7207930682        0.7816048557        1.7240496207
 O          3.4802422473        2.1780663604        1.1070682322
 H          3.8125360441        1.3614058047        1.5085463171
 H          2.6879406875        2.4189961375        1.6352145226
