  189
       -320.70021560
 O         -0.6716300884        0.6787027247       -2.5306858702
 H         -0.0643366387        1.4254287427       -2.7143385032
 H         -0.8910593149        0.2735691857       -3.3773213241
 O          3.2448466497       -2.7010844829        2.7600599361
 H          2.9071342794       -2.4163136380        1.8982042070
 H          4.1359346091       -3.0688472932        2.5575068760
 O         -0.9581610679       -3.5380262152        3.7030092979
 H         -1.4008065675       -4.0428189397        3.0079551495
 H         -0.1193133578       -4.0159425891        3.8794345558
 O         -3.0857607204        0.8335791435       -1.3742535493
 H         -3.0954914799        0.9597408659       -0.3982016832
 H         -2.1584620195        0.9609717902       -1.6612964862
 O          3.5740165958        2.7543770911        3.3718671058
 H          2.7635697870        2.4069786290        3.7820262004
 H          3.3419867997        3.5484086436        2.8770440316
 O         -0.8900698974        0.5404384006        3.2121914306
 H         -1.4951151166       -0.2004558734        3.4337576819
 H         -1.4308683680        1.3489850953        3.3082857731
 O          5.4766126622       -0.7401972829        1.1268328935
 H          5.3914149945       -0.3025792440        1.9989485863
 H          6.2367094181       -0.3228998149        0.6812681111
 O          2.4300173094        3.9211904311       -1.0467114406
 H          2.9343254095        4.1711367128       -0.2589570378
 H          1.6051146216        4.4416598204       -0.9727474973
 O          2.2981594484        0.2385048677       -2.3643614313
 H          2.7202908437        0.7705414925       -3.0502591662
 H          1.7923270858       -0.4430859862       -2.8403293721
 O         -4.6587098179       -1.9899213604        2.0686638829
 H         -4.6341118238       -1.3997506888        1.2982104274
 H         -4.7642049207       -2.8762260595        1.7010240084
 O         -2.6804047522       -1.3722906749        3.8116437612
 H         -2.1321425812       -2.1429367181        4.0163235924
 H         -3.3095572303       -1.6755472313        3.1243908946
 O         -1.9541435101       -1.6150353103        1.0024874189
 H         -1.0158231269       -1.6185712432        1.3036849296
 H         -1.9633768709       -1.6260071754        0.0250508351
 O          0.4635719502       -1.9849374774        1.9636840371
 H          0.7587075933       -2.8246571212        1.5583113916
 H          0.0862621578       -2.2559694698        2.8168361348
 O          4.3112513053        3.7005570214       -3.0985058598
 H          3.6883327168        3.8824882294       -2.3747410443
 H          5.0748951065        3.2414802942       -2.7015374405
 O          0.0212758138        5.0711642697       -0.6604612684
 H         -0.4203518239        5.5379362145       -1.3716046955
 H         -0.5219523027        4.2599135291       -0.4847846541
 O          4.9681890148        2.6691103819        0.6643062504
 H          4.4883728517        3.4356787960        1.0122652229
 H          5.7019831207        2.4952498526        1.2784785729
 O         -2.4742708279        2.7657504628        3.5071535847
 H         -2.8079039736        3.1217477552        2.6641302119
 H         -3.2130364430        2.2593774228        3.8699111850
 O         -1.4624379783        2.9399304574       -0.3048243725
 H         -2.2107802272        3.1551718867        0.2816666852
 H         -1.0477476130        2.1315411574        0.0611258904
 O          5.1805850883        0.6210207805        3.4365059241
 H          4.6666429521        0.0292986327        4.0162603659
 H          4.6436262469        1.4386714867        3.4014331922
 O         -4.4575241515        0.8264557103        3.5854450813
 H         -5.3672786150        0.6043090966        3.3508117941
 H         -4.0389026711        0.0199877706        3.9164135139
 O          1.4725835474       -4.6488556375        3.5896981286
 H          2.1489337735       -3.9571772767        3.4849862493
 H          1.3807096913       -5.0160350612        2.7019837903
 O         -5.4932835414        2.0342771046        0.4442804268
 H         -5.1423951692        1.1456385219        0.2187308134
 H         -5.9168188371        2.3599730568       -0.3896832934
 O         -2.1646699797       -4.2297298074        1.1242736095
 H         -1.6137129587       -4.3816519727        0.3413794502
 H         -2.1870690473       -3.2423546390        1.2096585790
 O          3.7046284423       -2.3394585312       -3.3553987078
 H          3.3018395088       -1.8883400547       -4.1016662378
 H          3.0248685085       -2.9552373212       -3.0368507601
 O         -2.4890220827       -1.7058554441       -1.6115695352
 H         -3.2004146847       -2.3746722477       -1.6916083840
 H         -2.9101023403       -0.8208319646       -1.5216190012
 O          2.8608982512       -2.3165785400       -0.0301067802
 H          3.6614997311       -2.6158812469       -0.4982396509
 H          2.2229659264       -1.9700996558       -0.6701924447
 O         -3.5845929546        3.7148978547        1.1761387719
 H         -4.2788364648        3.0555029554        0.9277688527
 H         -3.9687864968        4.5841941689        1.0656308545
 O          5.0338336661       -0.3914346718       -1.8840943771
 H          4.4534447131       -0.9511731192       -2.4242956637
 H          5.8591298804       -0.8826175579       -1.7883970054
 O          7.1306919200        2.0595929928        2.2932330744
 H          7.6036062351        2.6521743754        2.8780626813
 H          6.6170094159        1.4528284591        2.8599572762
 O          7.4302428271       -1.8018117935       -1.3326089180
 H          8.2236120166       -2.1156230741       -1.7671243401
 H          7.6903332051       -1.0458152236       -0.7793300326
 O         -6.5057910525        2.6228497910       -1.9022755674
 H         -5.7402982742        2.6381312654       -2.5051143508
 H         -7.0073926407        1.8214855182       -2.1135846151
 O         -4.7199236981       -4.3887081982        0.5547189275
 H         -5.0785039697       -5.2508375769        0.7637518052
 H         -3.7486677660       -4.4284986074        0.7705704682
 O          1.4827016683        1.2601692184        4.3403131278
 H          2.0490260962        0.5045990308        4.5605644224
 H          0.6638592975        0.8782798913        3.9694431462
 O          3.2748165320       -0.8731018236        4.6518442687
 H          3.3024691581       -1.3552951490        5.4783662683
 H          3.2082627998       -1.5538478110        3.9349378705
 O         -4.3864884621       -3.5419752439       -2.0086309572
 H         -5.0491444362       -2.9070745130       -2.3167531979
 H         -4.6506143178       -3.8557130670       -1.1225939509
 O          0.3490961222       -1.3203532300       -0.9713855466
 H          0.0259094714       -0.7073676326       -1.6564578356
 H          0.2909430799       -0.7814753625       -0.1671914661
 O          1.5903481803       -4.0344338402       -2.7469313018
 H          0.8496001484       -4.0430188560       -2.0941798638
 H          1.5359589908       -4.8578966420       -3.2315302973
 O          3.0738051208        1.8712028649       -4.4776183646
 H          3.5994086038        2.5917481782       -4.0299005811
 H          3.3508184596        1.8596133441       -5.3927184916
 O          7.5847174106        0.5877790827       -0.0259700756
 H          7.2286340235        1.1777866605       -0.7220731144
 H          7.7289002772        1.1437460285        0.7523404655
 O          1.0741357836        5.6228409847        1.8352792780
 H          0.5981743230        5.5510403663        0.9923994721
 H          0.6850566831        4.9556253540        2.4322603831
 O         -4.1534928424        2.2725214529       -3.2727550517
 H         -3.4372594456        2.9280661691       -3.3746864381
 H         -3.8615822850        1.7508422781       -2.4843674245
 O         -7.8736440681        0.1668397096       -2.1308316374
 H         -7.9400692693       -0.1153216142       -1.2006181387
 H         -8.7679525722        0.2050211628       -2.4719104638
 O         -5.5365315802       -1.1768793988       -2.8255701125
 H         -5.0102311740       -0.7703918873       -3.5388818123
 H         -6.3996558711       -0.7385721766       -2.8213051658
 O         -4.0530096432        0.1013999838       -4.7467547838
 H         -4.3955984850        0.2611616576       -5.6258391715
 H         -4.0602741034        0.9764869032       -4.2724611762
 O          0.8510517374        2.7740697345       -3.1970986147
 H          1.3650167092        3.1080376262       -2.4514596113
 H          1.5155584352        2.4499741652       -3.8307520737
 O         -1.7780613996       -1.3822925564       -4.1356535871
 H         -2.5440794626       -0.9193821652       -4.5061954657
 H         -1.9845456111       -1.4930600171       -3.1739970302
 O          3.4779716130        4.8481644405        1.4106058974
 H          4.0272502013        5.6291994342        1.4848903233
 H          2.5359722650        5.1684608704        1.5947969900
 O          0.1810428919        3.5585525657        3.3170565928
 H          0.6283604826        2.9624088627        3.9285631159
 H         -0.7643142120        3.4493718682        3.4866947226
 O         -7.0421558259        1.0563806140        2.3375769387
 H         -7.5948687055        1.7225384318        2.7464174477
 H         -6.4640316393        1.5255390416        1.6815219213
 O         -0.5396897841       -3.8352207717       -1.1656506215
 H         -1.1390399527       -3.9549650972       -1.9393200647
 H         -0.3794261736       -2.8648586856       -1.0836995772
 O          6.0418583610        2.0777982981       -1.7292621895
 H          5.6372020173        2.4015383333       -0.9038772340
 H          5.5938671724        1.2311722867       -1.9330694723
 O          5.5783599370       -3.3950275637        1.7303896201
 H          5.6925934071       -2.4609292616        1.4718361279
 H          5.4100952073       -3.8680897864        0.9102614478
 O          5.1275785520       -3.3754911616       -1.1371547844
 H          5.9695938582       -2.9014201207       -1.0616227327
 H          4.8974259939       -3.3494374869       -2.0715467376
 O         -5.2016365310       -0.5722479561       -0.2110084637
 H         -5.1516395763       -0.7508608280       -1.1680631853
 H         -6.1299598647       -0.7197902899        0.0314460562
 O         -1.8461882908        3.6410219508       -2.9338786682
 H         -1.7851662558        3.3514483915       -2.0059126462
 H         -0.9757097018        3.4564269401       -3.3070324735
 O         -7.8608499606       -0.7049275819        0.5076442489
 H         -7.6687106376       -0.0721413118        1.2387657417
 H         -8.1619513836       -1.5147252131        0.9213694587
 O         -2.0009166025       -4.1162922101       -3.3710782293
 H         -2.9162942730       -4.1339836977       -3.0579169155
 H         -1.9124370192       -3.3132325435       -3.9056493780
 O          0.9787607820       -1.5919598586       -3.9558137374
 H          0.0442697914       -1.5044704065       -4.1890948902
 H          1.0708497586       -2.4791360926       -3.5753008846
 O          1.2875165638       -4.3456668581        0.8168443127
 H          0.6334887967       -4.4342201443        0.1134934345
 H          2.0246001224       -3.8294036133        0.4417984479
 O         -2.9803824867        0.8522359571        1.2497876965
 H         -3.5764697123        0.9195754922        2.0126371891
 H         -2.6172549652       -0.0543131622        1.2784035506
 O         -0.0475492361        0.8659152250        0.6239371367
 H          0.9272603019        0.9310831410        0.5790018542
 H         -0.2552127239        0.7370411660        1.5654273978
 O          2.6242751421        0.5704246345        0.3448331573
 H          3.4254476024        0.1209693649        0.6295970589
 H          2.6228419311        0.4851314245       -0.6190841446
 O         -0.3012724252        0.6330475779       -5.5834745584
 H          0.0270274061        1.4151022180       -5.1351634877
 H          0.3416811368       -0.0639056402       -5.4278802836
