  87
       -142.30680294
 H         -2.9666093219       -0.6369022086       -0.0309416419
 C         -2.0200872316       -0.4589316686        0.4838203694
 H         -2.0770216812       -0.9019957377        1.4777058803
 C         -1.7834442635        1.0466275028        0.6101959409
 H         -2.5266151046        1.4656637911        1.2859481428
 H         -1.8704531772        1.5318723770       -0.3609202698
 O         -0.9496059442       -1.1077557858       -0.1633162264
 H         -0.9289860034       -0.8451328153       -1.1158840070
 N         -0.4291750407        1.2542766127        1.1476835091
 H         -0.3173037181        0.7525007071        2.0647006536
 H         -0.1717059419        2.2616330892        1.2895680050
 H          0.2701448182        0.8394374492        0.4806872053
 O          4.8619952855        0.2599849974       -1.8937328270
 H          5.7286984284        0.2983262165       -2.2990375104
 H          4.7231849550       -0.6868093215       -1.6058058237
 O          1.3276677869        2.7534337958       -1.9006265921
 H          1.2589667983        1.8793644527       -1.4598746735
 H          2.0048840656        3.2295039132       -1.3967693363
 O         -2.8192724304        3.1761322302       -1.6042397120
 H         -2.1151084813        3.7360299106       -1.2081397560
 H         -3.4879988143        3.7755140403       -1.9365111767
 O          1.7036918171       -2.0522497545       -1.4629474255
 H          1.1246876560       -2.7492892703       -1.1084328443
 H          1.5281250932       -1.9593840777       -2.4156979737
 O         -1.0104452331       -0.5194014688       -2.7535492858
 H         -1.1010242738        0.4351687299       -3.0061129658
 H         -0.2516252029       -0.8423298431       -3.2699430639
 O         -4.0081120598        0.8049046760        2.9224993551
 H         -4.4925935372        0.1967464016        2.3294070848
 H         -4.6638808287        1.2953439334        3.4196415646
 O          1.3384230318        2.2185242049        3.8999394991
 H          1.2971279042        2.4873425954        4.8184987742
 H          0.9485401884        1.3294971725        3.8502584892
 O          4.3402001462       -2.0869961940       -0.8856771397
 H          4.2879789185       -1.9408463486        0.0704060374
 H          3.4153510010       -2.2188510799       -1.1692676278
 O         -3.0746900863       -2.1705747954       -2.3274371942
 H         -2.3377057884       -1.5799846645       -2.5946838360
 H         -3.8823469667       -1.6679596481       -2.4390419056
 O          2.9719916847        3.6235795345        0.1651263793
 H          3.6484634245        4.2896688712        0.2926461372
 H          3.3741939622        2.7591756891        0.3789005475
 O          3.8742449545        1.1037942441        0.4524474533
 H          4.3821487954        0.8880246657       -0.3558971499
 H          3.9381152096        0.3304701127        1.0400038710
 O         -5.1607932569       -1.1954416799        1.4855981920
 H         -4.5398749250       -1.9083358724        1.7221208946
 H         -6.0438527564       -1.5113992608        1.6832458699
 O         -0.6299999807        4.3891556880       -0.7078136438
 H          0.0660318871        3.9257331598       -1.2029739155
 H         -0.3369101708        4.4290110910        0.2092999396
 O          1.4808188737        0.4509670247       -0.5496667813
 H          1.5348116419       -0.4659958664       -0.8965022888
 H          2.3524232221        0.6584310966       -0.1490321689
 O          2.7433034909        0.9086517626       -3.5774355000
 H          2.2812911999        1.6709717472       -3.2004952178
 H          3.5053149172        0.7226445110       -3.0020270250
 O          1.2942260239       -1.2459743611       -4.0013677957
 H          1.4123213890       -1.5220000036       -4.9104720088
 H          1.8321007061       -0.4177101966       -3.8901462423
 O         -1.0875101250        2.0275473725       -3.3387388465
 H         -0.2610558025        2.4559388168       -3.0895797552
 H         -1.7919370663        2.4496648872       -2.8076083764
 O         -2.4749751598       -3.8273216624       -0.3613935607
 H         -2.6704838479       -3.1300029454       -1.0363574810
 H         -2.9046070070       -4.6203342461       -0.6887978353
 O          0.0707902562       -0.1960645577        3.3801847822
 H          0.4821206738       -0.9580505222        2.9418902397
 H         -0.7898025771       -0.5242016239        3.7371561070
 O          0.2453046965       -4.0430926618       -0.2551747249
 H         -0.7185194930       -3.8732537133       -0.2778719967
 H          0.3841747301       -4.9327791608       -0.5822712702
 O         -3.2857835859       -3.1173786709        2.1424704506
 H         -3.4749136591       -3.9547384595        2.5698151609
 H         -2.9143596264       -3.3247749638        1.2595781580
 O          0.6800673196        3.6365481406        1.6793200530
 H          0.9402804065        3.3366685313        2.5699126118
 H          1.5111877333        3.7044861768        1.1735183049
 O          0.9704063180       -2.0094184166        1.5176390458
 H          0.9436349747       -2.9440153850        1.2823897001
 H          0.3566001298       -1.6011659547        0.8708181623
 O          3.5620799312       -1.2965997286        1.6836103592
 H          3.8367276543       -1.5540415586        2.5637709342
 H          2.6088226568       -1.5274049000        1.6034658530
 O         -2.3415234598       -1.0912503214        3.9638177830
 H         -2.6340227286       -1.8514090252        3.4434337768
 H         -2.9360148798       -0.3546522302        3.7253510119
