  144
       -244.32678414
 O          2.2299266929       -2.7494326342        0.7318081357
 H          1.8098849370       -1.8803411027        0.8405232409
 H          1.5345816455       -3.4014103040        0.9137481017
 O          0.2205477558       -4.1996980198        1.9433879395
 H          0.3630730342       -3.5721482524        2.7079233863
 H          0.3339479623       -5.0866944583        2.2840454658
 O         -1.5753026941        3.9820350158       -0.7284079000
 H         -1.5543376488        4.1529619714        0.2212205922
 H         -0.6646496223        3.9491307555       -1.0426642379
 O          3.4202626942        3.0476062838       -3.0745299440
 H          3.7686983361        3.5710836737       -3.7973479922
 H          4.1968059381        2.7732263446       -2.5379221183
 O          0.7220270895       -2.3896484280        3.7610793740
 H          1.6763462104       -2.5252776110        3.9028933187
 H          0.6936243513       -1.6221409894        3.1566304894
 O         -2.1734363772        1.6013373789        1.0888057920
 H         -2.8805613804        2.1332211054        0.6872593855
 H         -2.2561087802        1.7283782009        2.0473105308
 O         -3.8433259427       -0.6130802042       -3.3749411755
 H         -4.0934182872       -1.5503884670       -3.2856594706
 H         -4.6545803577       -0.0953088149       -3.1297566656
 O          5.8678021788       -3.5877145161        3.2631685607
 H          6.0544900864       -3.9864856901        4.1130082031
 H          4.9335551654       -3.2868682621        3.2896246440
 O         -1.3964325229       -0.4490732129       -2.3228241269
 H         -0.9212651867       -1.2451257936       -2.6251098700
 H         -2.2954354761       -0.4871411247       -2.7141626746
 O         -4.4341308856       -3.1518195484       -2.6382485518
 H         -5.0104389144       -3.1467201201       -1.8190498058
 H         -4.8616216906       -3.7562215707       -3.2457520816
 O         -5.1082000480        1.7005870689        2.8356135815
 H         -6.0061402921        1.6737056405        2.4723448096
 H         -4.7323036488        0.8146530819        2.6597262378
 O         -5.9899722830        0.7504500690       -2.6918539083
 H         -6.4562101299        0.1995743808       -2.0399576572
 H         -5.8477661110        1.5945852141       -2.2344322205
 O          6.9447527008       -1.2831188572        2.4054911978
 H          6.7124423128       -2.1797323430        2.7227776222
 H          7.0733968983       -1.3573693509        1.4390410182
 O         -0.0298624269       -2.7231517754       -2.7485001516
 H          0.3296261823       -3.2139211298       -3.4865752926
 H         -0.7429145562       -3.3015201618       -2.3530484626
 O          4.0117271376        0.7146664482        0.0324310017
 H          4.5687197935        1.2500181541       -0.5749630898
 H          3.9811280478       -0.1928786624       -0.3511819786
 O          4.2058877679       -1.7657639992       -0.8427006309
 H          4.0281866772       -1.8548177853       -1.7890405971
 H          3.5242898278       -2.2738305238       -0.3698107742
 O          2.2279621379        0.6307501702       -3.5593920011
 H          1.3300649773        0.9098832582       -3.8075420781
 H          2.7213598250        1.4591016486       -3.4112306266
 O          5.4809311139        2.0259160499       -1.7605497773
 H          5.8357502213        1.2645498704       -2.2914804695
 H          6.1801352715        2.2419249416       -1.1232076443
 O          6.8019186431       -0.9540952364       -0.2855508607
 H          6.7607686836       -0.0029704938       -0.0545653450
 H          5.8933986009       -1.2864905285       -0.3651281313
 O          5.7040048663        2.3817372478        2.6974368645
 H          6.5500481124        2.2203825221        3.1384686937
 H          5.1633149247        1.5930225765        2.8806108612
 O         -2.0035463336       -4.0808026589       -1.7564831076
 H         -2.8577750160       -3.7916568130       -2.1239115439
 H         -2.0426437340       -3.8763231942       -0.8015218210
 O         -1.8994094765        4.4456386255        2.1227862288
 H         -1.7018630036        5.2454760440        2.6102351220
 H         -1.9870989566        3.7311485487        2.7788823781
 O         -7.3260212423        1.7327104436        1.1364693453
 H         -8.2150969139        2.0672250895        1.2557252058
 H         -6.9346642021        2.2173224250        0.3776408209
 O         -6.0905245898        2.9578848748       -0.9601797280
 H         -5.2415119327        3.0715068339       -0.4845482931
 H         -6.3187149664        3.8180638070       -1.3136424679
 O          4.5476267290       -0.1017642269        2.5915946122
 H          5.4464742132       -0.5064966098        2.5726593672
 H          4.3570510299        0.1562267675        1.6708527087
 O          3.9350017289       -1.4842014588       -3.5982527848
 H          3.3231717841       -0.7302944378       -3.6934705096
 H          3.9968277550       -1.9101893816       -4.4534569143
 O          1.4284448327       -0.8118069008       -1.3435171151
 H          0.9639498998       -1.5989162550       -1.6585826457
 H          1.7689128755       -0.3669936331       -2.1376134026
 O         -5.9400829904       -3.1296893263       -0.5211521565
 H         -5.4698094075       -3.2356375054        0.3234492888
 H         -6.3910908822       -2.2691680012       -0.4645622297
 O          6.3338508799       -0.1729869678       -2.9098988772
 H          5.5755003636       -0.7206647724       -3.1651373574
 H          6.7452892966       -0.6082073447       -2.1426943728
 O         -0.3112888548        1.6088718192       -3.5765211919
 H         -0.6850288477        0.8818149987       -3.0224346861
 H         -1.0603946642        1.9047190144       -4.1092034374
 O         -6.6108232603       -0.5051136519       -0.3283015380
 H         -7.0325634785        0.1112373374        0.2873432112
 H         -5.6502382448       -0.3176239534       -0.2679365539
 O         -3.9546002896       -0.1205991914       -0.4695131006
 H         -3.7093549125       -0.7879394650       -1.1160559350
 H         -3.7361485090        0.7517076780       -0.8786000560
 O         -3.9044432127       -0.6488620451        2.1835918334
 H         -3.8021919081       -0.4311820224        1.2359673177
 H         -4.2699163978       -1.5471073864        2.2042074024
 O          8.1512798270        1.0960658418        3.0724805947
 H          8.8745653836        0.9814466916        3.6885473073
 H          7.7889402576        0.2076168188        2.9016500513
 O          6.9551271620        1.6835660720        0.4552987342
 H          7.8419891823        1.6819747079        0.8248847115
 H          6.3859127727        2.0018561275        1.2002121989
 O         -4.4688282044       -3.2972325632        1.8155791557
 H         -4.6173903652       -4.0758722459        2.3519749144
 H         -3.5543812719       -3.3632936280        1.4479067209
 O          0.9237158930        3.2844476852       -1.9098722580
 H          1.7822691677        3.4572212087       -2.3259966517
 H          0.4120360631        2.7518599340       -2.5617854704
 O         -1.5889915359       -0.2740382668        3.5854334221
 H         -2.3888959758       -0.5240183637        3.0833459716
 H         -1.2615048089       -1.0629753524        4.0214623612
 O         -1.2726728904       -0.7249193868        0.3548953881
 H         -1.2215396949       -0.6308197235       -0.6164352465
 H         -1.7449622400        0.0858167227        0.6575362103
 O         -2.0259826360       -3.2316827579        0.8109295280
 H         -1.2482875396       -3.6478215423        1.2286457988
 H         -1.7840410792       -2.2854312318        0.6858634289
 O         -4.2192695702        3.3665534251        0.9064171899
 H         -3.6014051159        4.0258374797        1.2452386715
 H         -4.5670104950        2.8680257897        1.6764047502
 O          3.3963205114       -2.4865413338        3.1786123754
 H          3.0979609847       -2.7046700407        2.2727278257
 H          3.7296498794       -1.5677877855        3.1092633041
 O         -3.3576302365        2.1638616862       -1.6808862509
 H         -2.7366833437        2.8305109585       -1.3325719129
 H         -3.1818345858        2.0969048786       -2.6294675488
 O         -2.4861832811        2.2820652530        3.7515252343
 H         -3.4457853160        2.1728629690        3.7917217428
 H         -2.0984253188        1.4210872437        3.9862355592
 O         -2.9401283368        1.7328362653       -4.4589992328
 H         -3.6052269652        2.1477617568       -5.0091672282
 H         -3.2386340699        0.8193360982       -4.3067991477
 O          0.8892702052       -0.6218276029        1.8344200523
 H          0.0786446420       -0.6585158719        1.2853057984
 H          1.1469952461        0.3150345631        1.7902304979
 O          1.6224689408        1.8914575142        1.0161294360
 H          1.1696494497        1.9907532562        0.1707354752
 H          2.5073610872        1.5634680145        0.7854626298
 O          0.8518074443        4.5829130224        1.5614338981
 H          1.2691996748        3.7141083588        1.4674026797
 H         -0.0911679042        4.3943506527        1.5989126202
