  601
      -1018.98151444
 H         -0.0484703891        0.7525314788        1.6266980533
 O          0.4811380938       -0.1304138115        1.6018317339
 H          1.4666653843        0.0277043681        1.5746586196
 H          0.2286666437       -0.6212146966        0.7281703507
 O         -1.9184536532       -3.0908625105        0.1602529938
 H         -2.3585200533       -3.2419402801       -0.6984869442
 H         -1.7654498808       -3.9810398378        0.5352630471
 O         -0.0621413464        3.7140036158       -0.5198444870
 H          0.2389331110        2.7799485468       -0.6269075536
 H         -0.9726272848        3.6778350785       -0.1712292207
 O          2.5532019845       -1.0543204426       -1.0237429984
 H          2.9868785285       -1.9200347810       -0.9970889590
 H          1.5938462079       -1.1966880481       -0.9706851473
 O          2.7256800597       -4.5666873558        2.2169656803
 H          1.9165130661       -4.0157586124        2.1731949692
 H          3.4763133561       -3.9542292971        2.2970578018
 O         -0.1872301673       -1.2251479531       -0.5522796573
 H         -0.7493441410       -0.4718588240       -0.8406187901
 H         -0.7768360945       -1.9823698203       -0.3605980775
 O          0.9174404799        1.2992470248       -0.6830154329
 H          0.8706543939        0.8652517623       -1.5488992230
 H          1.8269475810        1.5920105713       -0.5217949226
 O         -1.0242395291        1.8514960694        1.6651299026
 H         -0.6850928343        2.7459858101        1.9417555875
 H         -1.7632820344        1.6861889054        2.2795322137
 O         -2.2153760295       -0.8980498446        1.7253928032
 H         -2.1676209304       -1.7086608555        1.1873783919
 H         -2.7102949945       -0.2500415963        1.1953510352
 O         -2.0977465957       -0.7325746603       -2.9810033805
 H         -2.2711696639       -1.4281797768       -3.6360213383
 H         -1.1499944405       -0.4955990133       -3.0124350974
 O          1.1954955371        1.6267927354        4.0403405352
 H          0.3502808849        1.1458393729        4.0314119221
 H          1.7759330153        1.1490086862        4.6548284501
 O          1.5033513159       -1.4217198076        3.7607996555
 H          1.0956041800       -2.0972092774        3.1868218032
 H          2.1799674848       -1.0509146216        3.1795452619
 O          0.7501507067       -2.7088779062       -2.9768279357
 H          0.9288230825       -2.9839763755       -2.0549315090
 H          0.0312331788       -3.2676514571       -3.2787500806
 O          3.4709190414        0.7964051145       -2.6876003892
 H          3.1087187359        0.0981041394       -2.1025104329
 H          3.8197511685        0.3091081893       -3.4634030557
 O          0.1807395751        1.7274889154        9.1007383059
 H         -0.7617729515        1.4739388722        9.0968883762
 H          0.2348113793        2.6561965243        8.8473846393
 O         -3.8730641851        1.2580315602        0.9797018783
 H         -4.5534084179        1.2112624881        1.6706208126
 H         -4.3796782193        1.4551918925        0.1606315402
 O         -0.9760467794        0.8998134528       -5.4405389621
 H         -1.1503844063        1.2508358840       -4.5429811627
 H         -0.6473241474       -0.0168007451       -5.3848004830
 O         -0.2770831379       -1.6914036773       -5.6848119098
 H          0.6133428098       -1.9019146449       -5.3485545121
 H         -0.2620643562       -1.9668325383       -6.6238845621
 O         -3.7543233929        1.3394014481       -3.1994952195
 H         -3.3570988963        1.9436567895       -3.8693351835
 H         -3.0764925182        0.6670253358       -2.9924538352
 O          3.8133518604       -8.1976629034       -2.7695926669
 H          4.2869379839       -7.4871894026       -3.2355683223
 H          4.2868870863       -8.2912343322       -1.9247215192
 O          2.3916908338        1.9503411494        1.7022390001
 H          2.2632126160        2.8569701737        1.3949099150
 H          1.9993265420        1.8956293591        2.5934114903
 O          4.6271757701       -0.5653619770        3.6099386609
 H          4.4325049856       -1.4973294384        3.8415392973
 H          5.5940552914       -0.4763304449        3.5509912369
 O         -3.1731992981        5.0171134376        2.4559688526
 H         -2.5093821143        5.0796694638        3.1789695074
 H         -3.8862725788        4.4608372488        2.8273359340
 O          0.5288513590       -3.0873876027        1.9718529013
 H         -0.3553325210       -3.3816226955        2.2485683668
 H          0.5943191644       -3.1428874140        0.9978918621
 O         -2.9825518595        4.0978208254       -2.3837678017
 H         -2.2851226703        3.5017686540       -2.7266963222
 H         -2.9384097225        4.0294611443       -1.4112641951
 O         -3.8048699101        6.3851768223       -3.5714724126
 H         -3.3399280804        5.6615142168       -3.1010804809
 H         -4.6158919868        6.5444317447       -3.0859303052
 O          0.5845261368        3.0565528050       -5.7588395317
 H         -0.0145388220        2.2872691287       -5.8093782026
 H          1.0516113303        2.9512110435       -4.9053693052
 O         -0.9136767512       -4.8475787577       -3.7904149624
 H         -0.2336654569       -4.8301147505       -4.4882996034
 H         -1.4712852939       -5.6375872859       -3.9838873172
 O         -2.9159913671        1.7478297080        3.5793603830
 H         -3.6134509135        2.4164517936        3.6242663276
 H         -3.3554658923        0.8848915569        3.5432604362
 O         -1.7137112426        0.9469661090       -0.7900348600
 H         -1.4628253221        1.3850741864        0.0436746291
 H         -2.5976878947        0.5810008209       -0.6726587189
 O         -0.0246954270       -5.8091374854       -1.3808802072
 H          0.4870669226       -6.6332659161       -1.4551698292
 H         -0.3092842377       -5.5397938978       -2.2744792123
 O         -2.9080987142       -3.7049123053       -2.2119848845
 H         -3.6237957167       -3.1175951690       -2.5305714919
 H         -2.2791686103       -3.8145272615       -2.9372713345
 O         -0.6837196973       -8.6020760079       -3.2588336508
 H          0.1211853809       -8.0834812368       -3.4131821530
 H         -0.8793546064       -8.5397876207       -2.3091440665
 O          5.0627944899       -5.8511259394       -3.5498699222
 H          4.2016358516       -5.4897795007       -3.2175780271
 H          5.6279182260       -5.8624374882       -2.7694559843
 O         -4.1879069352       -3.3506010614        2.0899854537
 H         -4.2352938714       -3.1916010866        1.1398481856
 H         -5.0690284372       -3.1231570070        2.4744425102
 O          2.9418677445       -0.6969966276        1.5644715110
 H          3.8009745571       -0.5172105743        1.9653055441
 H          3.0345970471       -0.7473336797        0.5979218893
 O          7.0094180089       -3.4078993632       -2.2566736345
 H          6.7459956867       -3.5307656039       -3.1857854626
 H          6.5794786936       -4.1198681174       -1.7597664071
 O          3.7635104538       -2.7440899549       -3.2319976746
 H          4.2194266821       -2.1441416133       -2.5996101523
 H          3.3557634006       -3.4889912823       -2.7614509643
 O         -5.9840122570        1.3287942506        2.7490913938
 H         -6.6089521524        1.6515125750        2.0665719939
 H         -5.7570195324        2.1062732812        3.2880416869
 O          3.9311762740        4.6872699326        2.9609297248
 H          3.1804452842        4.6129482432        2.3518128077
 H          4.0254305398        3.8107054132        3.3893084483
 O         -2.4106484427       -0.3474888081        6.2301434104
 H         -1.8190049475       -0.3048497726        5.4517440859
 H         -3.2725798519        0.0212171931        5.9544655442
 O          1.5523700622        4.2395174665        4.4662481825
 H          1.3826672055        3.2808809415        4.4078981195
 H          2.4522552789        4.3280054178        4.8170649694
 O          2.8930815369       -6.0043274021       -0.0149175445
 H          2.3936123659       -6.8271572839        0.0094916199
 H          2.8179387185       -5.5524413400        0.8482951299
 O         -0.8508337112       -0.1935326383        4.0336281252
 H         -1.3044081867       -0.4478583613        3.2151608112
 H         -0.0216546171       -0.7147619612        4.0368892874
 O          4.9649632940       -7.9834984499       -0.2838660093
 H          5.7267600605       -8.4493803107        0.0601376962
 H          4.2476550164       -8.1143436056        0.3835080976
 O          3.2476741741        2.6818845560       -0.7720842019
 H          2.8830940309        3.5047896905       -1.1625248897
 H          3.5377001560        2.1312466409       -1.5099340022
 O         -5.1239701431        2.1643984187       -1.1168916272
 H         -4.5420096412        2.0701479143       -1.8963110715
 H         -5.1734082259        3.1091615190       -0.8700861497
 O         -1.4666424016       -5.5954749551        0.8903976909
 H         -0.8813772761       -5.6509897190        1.6712319240
 H         -0.9325154571       -5.8071425658        0.1017956165
 O         -2.8879764031        2.7144253565       -5.2298568044
 H         -3.5259511653        2.9126046696       -5.9255493362
 H         -2.3604848753        3.5160580619       -5.0774419158
 O         -5.3400877453       -3.2129068451       -0.3870736879
 H         -5.6208935023       -4.0944585871       -0.0775548762
 H         -5.9988211910       -2.9977545312       -1.0788480942
 O         -2.5581264300       -2.6389199121       -4.8567458768
 H         -3.1683525424       -2.2954419242       -5.5383386222
 H         -1.6540595041       -2.4218598786       -5.1770924733
 O         -0.9236111253        6.1333067794        0.8026373397
 H         -1.7591449540        6.0638281948        0.3083825147
 H         -1.0207691614        6.9235705476        1.3691776121
 O          1.3547101873       -4.0100959635        4.6326491565
 H          2.2182868214       -3.6355682692        4.3625265120
 H          0.9381330319       -3.3258522145        5.1679167526
 O         -0.4284897098        4.1624022966        2.5421110547
 H         -0.5552154714        4.8770910489        1.8891748678
 H          0.4144547140        4.3087689361        2.9856549125
 O          1.9295082817        4.5681892457        1.0501314287
 H          1.1424296851        4.2787100974        0.5362428700
 H          2.1905241275        5.3959677768        0.6307335654
 O          3.6551345227        2.4902091753       -4.9717636958
 H          3.0243002876        1.7379916573       -5.0527101795
 H          4.5037053284        2.1171272241       -4.7006655303
 O          1.4983035486        2.7593292006       -3.2615416146
 H          1.8472480217        3.5981430511       -2.9148637519
 H          2.1741700768        2.0743448919       -3.1282066579
 O         -3.3392732191        6.6129087699       -0.4189615882
 H         -2.7629762667        7.2050449423       -0.9512489401
 H         -3.6556001029        7.1320149516        0.3347232973
 O          7.8975485093        1.4425618196        1.0793927132
 H          7.5162848448        2.2181691602        1.5256236092
 H          8.2995272077        1.7823925564        0.2746383419
 O          0.4686441769        0.8296137736        6.5899631655
 H          0.4653582016        1.0641010305        7.5348332524
 H         -0.2029370231        1.3908736676        6.1664283223
 O         -4.2936164242       -0.7156327830        3.2655262013
 H         -3.4832580735       -0.9623002033        2.7610799327
 H         -5.0052693926       -0.7352436409        2.6005709141
 O          3.8520245130       -3.0048680202        4.5192285433
 H          3.6752680709       -3.0292181198        5.4814227850
 H          4.7339860874       -3.4013554464        4.4000357589
 O          1.1772512862       -3.6241205746       -0.5128484254
 H          2.1466434436       -3.7199738464       -0.4292662935
 H          0.8145742766       -4.5014871790       -0.7481388144
 O          1.7030983331       -0.6552451491        9.4167764378
 H          1.0151427299       -1.3344423419        9.4104744431
 H          1.2565659804        0.1983958844        9.4771317186
 O          4.9377414914       -3.1011209302        1.9650074585
 H          5.3334609067       -2.2450544730        1.7093003082
 H          5.6445259542       -3.7670248340        1.8542740725
 O          2.2813932348       -2.2020566198       -5.2642013397
 H          2.7650000830       -2.3039595830       -4.4119482923
 H          2.9454249048       -2.3643626517       -5.9630352672
 O         -0.7690878769       -4.9998904413        6.9648682018
 H         -0.4893451251       -5.7332959286        6.3967963055
 H         -1.6640921585       -5.2183616787        7.2513710202
 O          0.1111221767       -7.1642396959        5.4286655268
 H          1.0198646073       -6.9554307572        5.7185372499
 H          0.0086291073       -8.1160065233        5.4223221783
 O         -1.4495982058        8.2286582984        2.4271120644
 H         -2.4167004117        8.1301154601        2.4415537832
 H         -1.1053064139        7.9063241609        3.2668229277
 O         -4.9066882097       -2.0828591504       -3.0889504568
 H         -4.7696004281       -1.4890995650       -3.8474370769
 H         -5.3720331431       -2.8604966835       -3.4488496217
 O          7.9892421913        0.1661692720       -2.0416283628
 H          7.1182738761        0.5261162463       -1.7383117184
 H          8.5658336677        0.9292068277       -2.1135531577
 O         -4.0465024210        7.4579550554        2.1172537936
 H         -3.7736045090        6.5138268790        2.2672271175
 H         -4.9294540763        7.5488616390        2.4732681873
 O         -2.6409550957       -4.1665158089       -8.0978145889
 H         -2.9297177472       -4.5782757358       -7.2455818929
 H         -2.8070275003       -4.8134611362       -8.7823911237
 O         -2.4799790712       -6.9349971313       -4.1688247183
 H         -1.8623441943       -7.6895758441       -4.0113875236
 H         -2.9459557401       -6.8268603264       -3.3113357324
 O         -4.8772573537       -5.8318699025        2.7894248681
 H         -4.4966232323       -4.9826900460        2.4704690067
 H         -5.3499513542       -5.5789797684        3.6186743098
 O          2.6433528516        5.0643095811       -5.2474723038
 H          2.9631682767        4.1679963371       -5.0572685271
 H          3.4314292932        5.6379484518       -5.2743941677
 O          5.3877770419       -1.2612698542       -1.8174031214
 H          6.0831712579       -1.9176198428       -1.9853505451
 H          5.3781559386       -1.1548327996       -0.8474456213
 O         -0.3667895523       -2.5904720723       -8.1911053031
 H         -0.6151724291       -1.7931613819       -8.6817918233
 H         -1.1259110617       -3.1975043834       -8.2127604898
 O          1.9477716872       -4.1625116370       -7.9448125683
 H          1.2677443970       -3.5183170033       -8.1902132996
 H          2.7769021179       -3.6821965471       -7.8247161593
 O         -1.7822832212       -3.8492864364        3.0573516670
 H         -1.9513934885       -4.7319674265        3.4502273535
 H         -2.6294957246       -3.5510042361        2.6817307099
 O          1.2804949835        6.6908665250       -0.6060211621
 H          1.1995202781        7.6473114599       -0.6292771488
 H          0.4550040070        6.3809004476       -0.1782399882
 O          4.9349208695        1.4201292189        1.2405150045
 H          5.4305674868        2.0662297841        1.7695467196
 H          3.9750582275        1.6277161264        1.3311063471
 O         -7.7926866955        2.1922947955        1.0052832690
 H         -7.7784234226        2.3777405963        0.0436410688
 H         -8.3818789693        1.4325054520        1.1254289665
 O         -6.4741500302       -5.4487277654        0.5998581494
 H         -6.0380532838       -5.7349759956        1.4250072856
 H         -7.3077259958       -5.0254670620        0.8329973411
 O          0.1400178913        9.1090940025        0.2820946046
 H         -0.4554979155        9.1660227944        1.0391078876
 H         -0.4367602942        8.8226777756       -0.4550825611
 O         -4.6705300530       -0.2017482085       -5.0490566882
 H         -3.9983668996       -0.0126746575       -5.7174791551
 H         -4.4994400342        0.4459430228       -4.3153397290
 O         -3.2604505829       -7.5796462538        1.3542191535
 H         -4.0334941122       -7.2096784097        1.7940135053
 H         -2.6842364747       -6.8119600382        1.1563183318
 O         -7.4510943982       -0.6431878280        3.8681256405
 H         -8.2839320460       -0.5601946644        3.3957086541
 H         -6.8811691678        0.0700003006        3.5064860638
 O         -5.9278086405       -6.0929792153       -2.0521823722
 H         -5.0032420735       -6.3718693970       -1.9440873169
 H         -6.2340378702       -5.9312448499       -1.1472567255
 O         -3.5919245554       -1.0109334735       -0.7321214826
 H         -4.1854577801       -1.7667156538       -0.7039996645
 H         -3.1292087078       -1.0626651428       -1.5814115694
 O         -8.1814122332        2.5376222441       -1.6600473066
 H         -7.5644269919        2.2164164295       -2.3487212291
 H         -8.8425892351        1.8350199030       -1.5988099716
 O          3.1526790240       -8.4687223780        1.6006105310
 H          2.1840116783       -8.4773345077        1.5238649192
 H          3.3546550772       -7.9356048688        2.3881182175
 O          1.1694795425       -4.7113111341       -5.4814622229
 H          1.5651680679       -3.8918591896       -5.1301756714
 H          1.3854922298       -4.6851130883       -6.4397300497
 O          4.1408549240        2.2197236404        4.0396803885
 H          4.9277490439        2.0540199874        4.5852906654
 H          4.0617688502        1.4543089181        3.4624786004
 O         -3.2545605858       -6.3465509549       -1.7008333539
 H         -2.5555567467       -6.7990186272       -1.2052891373
 H         -3.0700224213       -5.3878249985       -1.7054811157
 O          4.2660263480       -2.6825057622       -6.9965534845
 H          4.9449823683       -2.9589060629       -6.3553803084
 H          4.5018262063       -1.7983881079       -7.3060408017
 O          7.1545144669       -0.8521944970       -4.4221988760
 H          7.4950652286       -0.6284855315       -3.5321076009
 H          7.1794982377       -1.8074947041       -4.5215475902
 O          5.2535241497        5.3972540314       -2.6127433403
 H          5.7894857155        4.7273092166       -3.0930559176
 H          5.8499126135        5.7351064998       -1.9304152222
 O          3.9164481157       -0.8204519437        7.9085556645
 H          3.2198537627       -0.7312673815        8.5890823016
 H          3.5026966878       -0.4669492447        7.0877636025
 O          0.5122323119       -0.0869576601       -3.0402010276
 H          0.7143604788       -1.0453517147       -2.9989028376
 H          0.9655989774        0.2587229259       -3.8270406552
 O          6.4397136980        4.3556876758        4.9177208433
 H          5.5043533013        4.3996014500        5.2298266499
 H          6.8251312884        5.2153752698        5.0794785988
 O         -4.8117110777        0.7327095603        5.6315040307
 H         -4.9330155793        0.5070321552        4.7006308144
 H         -5.4109107447        0.1108868183        6.1111787418
 O          6.4203770187        1.6329410407        5.4629565211
 H          6.7450076197        2.5372790870        5.3609669349
 H          6.0796185892        1.5863558883        6.3924811460
 O         -2.9018325000        0.5651356595       -7.1536011241
 H         -2.2348907550        0.8434009938       -6.4647818726
 H         -3.4514360898        1.3436766625       -7.3323167393
 O          7.2679333188        0.0038231582        3.3492105433
 H          7.5561515571        0.4884918127        2.5593137070
 H          7.2155741658        0.6444052811        4.0727384371
 O          1.9082621298        0.4835294020       -5.2817971559
 H          1.5976690916        0.5389457548       -6.2072538041
 H          2.2698748610       -0.4193815566       -5.2009961213
 O         -1.3764563770       -8.1740048627       -0.5876686742
 H         -2.1365433330       -8.5259092220       -0.1146369856
 H         -0.6552052380       -8.1202340786        0.0704496807
 O          5.7777841672       -3.4869641974       -4.7487901376
 H          5.6386132265       -4.4456736890       -4.6770680431
 H          5.0068601725       -3.1067022632       -4.2514865790
 O         -5.2937764416        4.7222379383       -0.3297888450
 H         -5.9572284279        4.9872889900       -1.0090024602
 H         -4.5460876001        5.3389129026       -0.4021038825
 O          0.4277208180       -8.0468050633        1.4878627476
 H         -0.1931589508       -8.4519830592        2.1256538642
 H          0.5617723292       -7.1587514602        1.8685396227
 O         -1.8295527519        5.2488968157        4.7299049293
 H         -1.0639709578        5.8149936757        4.5336358854
 H         -1.4750167574        4.3616249054        4.9246741076
 O         -0.2582682604       -2.6573570390        8.7442971755
 H          0.0719319704       -2.3122287348        7.8813658042
 H         -0.1499364035       -3.6096998783        8.6841835910
 O          4.5218673357        2.8763399203       -7.4257067631
 H          5.1290635098        3.6299485478       -7.3544133586
 H          4.1693560316        2.7846515739       -6.5074704969
 O          2.7741272458       -5.1187667038       -2.4716751614
 H          2.8431740236       -5.4562633038       -1.5502375878
 H          2.1649408817       -5.7188751801       -2.9356152024
 O          4.1882740617        0.1187374687       -7.4254036068
 H          3.2510286182        0.0740350505       -7.6769801016
 H          4.4494826503        1.0350214501       -7.6105756137
 O          2.8768376792        2.3801898569        7.0964732427
 H          2.0341896905        2.8463562736        7.2730696919
 H          2.6520156989        1.5833340007        6.5929906357
 O          3.9610701446        4.4271440019        5.8603144623
 H          3.6456896234        5.1443473610        6.4176694002
 H          3.6697163546        3.5901564539        6.2919981323
 O          6.2839804856        1.6026518206       -5.2375113520
 H          6.3696904061        1.7960502605       -6.1733977253
 H          6.7161962464        0.7524815006       -5.0611198434
 O         -5.0333710952        3.6075153879        3.7237092208
 H         -4.9285149381        4.1119698838        4.5690829453
 H         -5.7283049242        4.0638909288        3.1801055571
 O         -3.4927441231       -4.9031055614        6.8251447201
 H         -3.3816695894       -4.0106516534        7.2309466248
 H         -4.4386058425       -5.0508569170        6.7607859973
 O          8.0540283088       -2.5058719520        2.5135718561
 H          7.8732462218       -1.6424430799        2.9182216014
 H          8.3512189886       -2.3041409791        1.6160807231
 O         -6.6591009043       -3.0561726364        2.9610265717
 H         -6.8869340169       -2.1815448873        3.3339574709
 H         -7.2403905354       -3.1700792863        2.1880929763
 O         -1.5577498293       -2.8994709916        5.4543611580
 H         -1.5238903241       -3.1741610392        4.5113608329
 H         -1.3357002186       -3.6886815535        5.9889051209
 O          2.9290066168       -3.1872862105        7.0402256143
 H          3.4356367796       -2.5367575206        7.5540655774
 H          2.0655146270       -2.7671101168        6.9010145411
 O         -8.2722186133       -3.2120488400        0.7701605302
 H         -8.0592397192       -3.0987217865       -0.1775055738
 H         -8.7767233666       -2.4226134811        1.0122857932
 O         -4.2644726473       -2.6213590674        5.1322638964
 H         -4.3075516725       -1.9559767596        4.4166854515
 H         -3.3232120395       -2.6926900581        5.3779722085
 O          1.9197821441        7.7552328889        2.0477705623
 H          2.5147701078        7.3301981240        1.4030355145
 H          1.3487127152        8.3366033267        1.5249569595
 O          0.3611475170        6.6672328430        4.0398787105
 H          0.8453803850        7.0293500667        3.2784794599
 H          0.8747776091        5.8902099540        4.3201042674
 O         -2.9078012911       -2.5025266124        7.9423369615
 H         -2.7898171473       -1.8323334143        7.2484077928
 H         -2.0356961853       -2.5866665544        8.3648061045
 O         -6.6789610938        4.5941198655        1.9671314306
 H         -6.1358172360        4.7111399672        1.1578231510
 H         -7.3072004308        3.8980526600        1.7346473693
 O         -5.8404373060       -4.7591807500        4.9907587374
 H         -5.2037283838       -4.0098381915        5.0529785074
 H         -6.6372952606       -4.3554376520        4.6340044683
 O         -4.3198007698        4.9613288516        5.8457585541
 H         -3.4519167262        5.2624793992        5.5285818950
 H         -4.1279336166        4.2808075376        6.5060877468
 O         -1.8288103352        4.9107325623       -7.5732697428
 H         -0.8867779347        5.0807605916       -7.3847387427
 H         -2.0081094432        5.3053208715       -8.4251823207
 O         -1.1308327012        2.2496598603       -3.0447760508
 H         -0.1887739415        2.4872543677       -3.0490693092
 H         -1.2813050844        1.7382971320       -2.2261831797
 O         -2.2895650845        0.7136846524        8.6392815141
 H         -2.6577605567        0.0378219090        9.2096828306
 H         -2.2016463034        0.2899039954        7.7491237220
 O         -3.4770432133        2.6252279421        7.0691347591
 H         -3.2026199924        2.1091880795        7.8429859882
 H         -4.0633940144        2.0400408816        6.5558418399
 O         -8.9427466106       -0.1065808330       -1.3985979851
 H         -9.2755234497       -0.6021895528       -2.1485690556
 H         -7.9618527710       -0.1828984621       -1.4590069548
 O         -1.2984929612        2.6653751162        5.5285746936
 H         -1.6913595463        2.2503906757        4.7369826888
 H         -2.0432381937        2.7030057996        6.1694302583
 O          0.2107081038       -5.8668194281        3.0087442620
 H          0.6431807696       -5.0883527196        3.3985562227
 H         -0.0282552797       -6.4081821669        3.7788270754
 O          2.4306040485       -5.9501718858        6.0528112694
 H          1.9900402101       -5.1982283950        5.5815385754
 H          2.8370482748       -5.5450186900        6.8214885130
 O          3.5361595598       -6.6668965300        3.6526964291
 H          3.1878691849       -5.8932237588        3.1630477666
 H          3.2288583130       -6.5582942782        4.5672439129
 O         -2.6161702581       -6.0014254983        4.4005030289
 H         -3.4357016215       -6.1480228391        3.8989911275
 H         -2.8912571917       -5.6505099787        5.2659828815
 O         -8.6797087570       -0.4766683356        1.2715778829
 H         -7.7102682488       -0.6405890192        1.2437449463
 H         -8.9528846740       -0.3828598415        0.3422685022
 O         -5.7140144479       -4.4063795030       -4.2163204164
 H         -5.7686662919       -5.0075075999       -3.4496546447
 H         -4.9845029760       -4.7269384756       -4.7765526521
 O         -6.0246275333       -0.9984199401        1.0973476818
 H         -5.9065722141       -1.9041048350        0.7628922465
 H         -5.9353629180       -0.4656509511        0.2839337222
 O         -8.3415443189       -5.1637932619       -3.1204093861
 H         -8.1251890275       -5.0129908725       -4.0432268796
 H         -7.6751762908       -5.7763319055       -2.7806117151
 O         -1.0732026076       -0.0587587710       -8.9834791892
 H         -1.2060776119        0.4900626830       -9.7555104030
 H         -1.7551506430        0.2057720395       -8.3195938965
 O         -6.2688387319       -0.2193556766       -1.4255298984
 H         -5.9170536135        0.6827985268       -1.5042449902
 H         -5.7479811245       -0.7970384399       -2.0071118128
 O         -6.7004595389        0.8564733215       -6.3808231593
 H         -6.0005285146        0.3563479507       -5.8901484497
 H         -7.2279291134        0.1931161954       -6.8254102630
 O         -1.5661640741       -8.4412502448        3.2750016773
 H         -1.7402114353       -7.7136049440        3.8876202062
 H         -2.2522812228       -8.3367663075        2.5867668796
 O          1.4652788489        0.4515748823       -7.9135981894
 H          0.6106948013        0.1794089571       -8.2765459534
 H          1.5745254637        1.4018704531       -8.1526248649
 O         -0.4124959125        7.2793315251       -5.5503073508
 H          0.3014977747        7.3095901203       -4.8782207165
 H          0.0120721165        7.0448150182       -6.3822965061
 O         -1.2188547037        4.7977038243       -4.7837155086
 H         -0.5165023844        4.2505552894       -5.1938893665
 H         -1.1242447246        5.6942572925       -5.1531004452
 O          8.2736848033       -1.8273886806       -0.2209288405
 H          8.3802788489       -1.0599528498       -0.8115591140
 H          8.0210313948       -2.5516524762       -0.8067607108
 O          5.6759181097        6.6602306704        2.2355368221
 H          5.4882785848        7.2962857793        2.9283515917
 H          5.1581314926        5.8664798106        2.4811533136
 O          1.8706095867        3.0581468825       -8.1094309373
 H          1.4713926547        3.1101933262       -7.2110645914
 H          2.8367534694        3.0996292097       -7.9913562887
 O         -6.9836074337        5.0549482826       -2.3129415844
 H         -6.4187383253        4.6252292521       -2.9874980119
 H         -7.6467547708        4.3949400136       -2.0748026849
 O         -6.5168449941       -2.3224419581       -5.9314134674
 H         -5.6647174209       -2.1053630009       -6.3377762000
 H         -6.3719916270       -3.1517174038       -5.4583186946
 O          0.8667281970        5.5501792124       -7.3074257331
 H          1.1751633354        4.9321260304       -7.9823220526
 H          1.4348591877        5.3631139040       -6.5345883218
 O         -5.1905984702        3.7831746215       -3.8720773494
 H         -4.3907085570        3.8398150190       -3.3042931711
 H         -4.9377047628        4.1917766587       -4.7151258731
 O         -4.7821008644        2.6053461699       -7.2746358083
 H         -4.9970722361        3.5403332491       -7.2089237437
 H         -5.5770814767        2.0988873941       -7.0260495787
 O         -6.3011840505       -1.2734507619        6.3912654722
 H         -6.9111649991       -1.1939011008        5.6462629554
 H         -5.6115764257       -1.9054691732        6.1187062322
 O          4.4511563620       -0.5156719892       -4.7685802673
 H          4.4229835468       -0.2357051506       -5.6995962916
 H          5.3740468359       -0.7091422140       -4.5493896160
 O          4.6606446733        6.7981572276       -4.8019640510
 H          4.3439009260        7.6757626460       -4.5860129515
 H          4.9010088477        6.3819716327       -3.9419904400
 O          2.6343246851        4.8732247728       -2.0585805590
 H          3.5343048094        5.1856580023       -2.2523880226
 H          2.1562210375        5.5759772572       -1.5782268074
 O          6.0552514159        4.8645326924       -6.3230284972
 H          5.6344785347        5.6879328218       -6.0484962205
 H          6.5522797860        4.5680648531       -5.5504178670
 O          2.9045929316        0.0034893222        5.5658319803
 H          3.6607290077       -0.0635062630        4.9469656478
 H          2.2985908645       -0.7037475781        5.2917924140
 O          6.9720096478        3.7778412197       -3.8245978816
 H          7.5410536314        3.5498558060       -3.0666665769
 H          6.7261542759        2.9357653004       -4.2476481571
 O         -3.9517381841       -1.9755560897       -7.0781174534
 H         -3.5799855783       -2.6683870654       -7.6433020673
 H         -3.5831470087       -1.1246393463       -7.3573291160
 O         -3.4789870845       -4.9991515587       -5.7120067058
 H         -3.1360180949       -5.8135024666       -5.3038370708
 H         -3.0401143502       -4.2441193534       -5.2605102106
 O          0.6563420573        3.9074244811        7.2468596579
 H          1.0619064416        4.7468001770        6.9766746348
 H          0.1048716332        3.6205377333        6.5055455374
 O          6.0508440296       -1.3784044237        6.1005127589
 H          5.4671070571       -1.3069609000        6.8638871836
 H          6.3673437031       -0.4916612742        5.9099184507
 O         -0.3997116892        5.5715743616       -2.4025819843
 H         -0.8201001412        5.1714982145       -3.1916560449
 H         -0.2450711070        4.8635279666       -1.7446721300
 O          7.9883014338        3.0561486745       -1.3941177569
 H          7.8778841772        3.9535437128       -1.0388094185
 H          7.1150762851        2.6300276361       -1.3060789701
 O          5.7891128538        1.4755730288       -1.3131957287
 H          5.4743449231        1.4556961998       -0.3831606838
 H          5.0988214634        1.0492416093       -1.8501512681
 O          3.8471738413       -3.3781069539       -0.4375007936
 H          4.1329418952       -3.1832727531        0.4797459326
 H          4.3885977954       -4.1449195359       -0.6947554081
 O          6.2181416109       -6.2460340990        3.6353470112
 H          6.3196974603       -5.4948432472        4.2364168938
 H          5.2678800626       -6.4788695073        3.6402904586
 O          0.5895075339       -1.7792826108        6.3903531148
 H          0.5760495398       -0.7970089118        6.4667280287
 H         -0.2766822269       -2.0171833994        5.9857730901
 O          1.5434480240       -8.0241597559       -1.3166819047
 H          2.3110788447       -8.0915396816       -1.9207526801
 H          1.3197107377       -8.9119714278       -1.0422616766
 O          2.0093374219        6.3251836310        6.5440400439
 H          2.4529220525        6.6347131698        5.7205948390
 H          1.5182259077        7.0744320885        6.8778595348
 O          6.8828349454       -4.8882123970        1.5180853992
 H          7.6034154085       -4.3229858212        1.8165233516
 H          6.6877557431       -5.5170076396        2.2636785483
 O         -2.2922932695        8.6243105467       -4.0282036110
 H         -2.9365996854        7.8985639143       -3.9684225654
 H         -1.6476713448        8.3372104616       -4.6894991829
 O          7.0892382713        5.5042300576       -0.4981249066
 H          7.3580890984        6.0981221663        0.2029048874
 H          6.3218098977        4.9957904117       -0.1346035228
 O          1.4338042810       -6.9073360970       -3.9857018091
 H          2.1559556926       -7.5020473132       -4.1994121066
 H          1.3690850109       -6.2353769564       -4.6946053833
 O          3.3970827755        6.9864633957        4.3125732507
 H          3.5825386379        6.1008423574        3.9395669628
 H          2.8823409923        7.4469198042        3.6358384481
 O         -4.1658055994        5.1675615318       -6.0477324247
 H         -3.3278240337        5.0958646730       -6.5358754831
 H         -3.9919486700        5.7956902236       -5.3275475945
 O          3.4439773687        7.9624092673       -2.1335921953
 H          2.7133630730        7.5642172099       -2.6656482879
 H          3.1844557530        8.8689297202       -1.9717384975
 O         -2.6424243270        3.6208032540        0.2491803586
 H         -2.7937248274        4.2378711619        0.9889096456
 H         -3.0273750856        2.7752253378        0.5392940513
 O         -6.7026192235        1.5927932606       -3.7245229578
 H         -6.0235757031        2.2970258962       -3.7314230852
 H         -7.0433688227        1.5689907703       -4.6275669585
 O          3.7931908858        6.7356642784        0.2941032102
 H          3.7614356714        7.1772751439       -0.5771217444
 H          4.5880310189        7.0145704060        0.7780420021
 O         -7.5447239194       -2.9174898560       -1.8481246199
 H         -7.6058535986       -2.2128064097       -2.5265444158
 H         -7.8952893228       -3.7244703415       -2.2721805051
 O         -7.7097160293       -1.0741502972       -3.8060800840
 H         -7.3404001589       -1.4654810446       -4.6172713140
 H         -7.2573858070       -0.2285656501       -3.6775555026
 O          6.4723001014       -3.6283578843        4.5747805148
 H          7.0511192724       -3.3226681511        3.8621961499
 H          6.4925132613       -2.9241925480        5.2426781014
 O          5.6642887296       -5.3885877503       -0.8181834102
 H          6.1747531108       -5.2205066595       -0.0035979289
 H          5.2280873503       -6.2465364249       -0.6429012715
 O         -1.3985722924        7.9463967294       -1.6365694715
 H         -0.9838855050        7.0953755999       -1.8954985870
 H         -1.6831186021        8.3635787986       -2.4802245630
 O          1.4825820221        6.9254394495       -3.6537056528
 H          1.9033697905        6.2002965757       -4.1549482340
 H          0.8404309299        6.4705856599       -3.0566720436
 O          6.4926467129        3.3418352954        2.3820391561
 H          5.9475104546        3.9045947587        1.8031142124
 H          6.4720577266        3.7298908185        3.2726959391
 O          4.9659414268        4.2890227810        0.3856252551
 H          4.3921817403        5.0741637923        0.3872557628
 H          4.4263451322        3.5629219516        0.0012687582
 O          5.9035209298       -0.9779006777        0.7859184789
 H          6.8486743633       -1.1094595303        0.5996266567
 H          5.7569125753       -0.0509531169        1.0483154696
 O          5.3445086599        1.5105849147        7.8648814910
 H          4.5207262577        2.0140684447        7.7682302760
 H          5.0419825190        0.6153740580        8.0948488846
