  534
       -906.58262496
 O          1.2624796892       -0.6364037476        4.4964648130
 H          1.0903715043       -1.4620954229        4.9874262176
 H          1.9325054938       -0.8021195820        3.8123436545
 O          1.7476786738        4.7373499087        0.9232564713
 H          1.4415781074        5.5397549593        0.4473905195
 H          2.5034526891        4.4103946273        0.3859459962
 O          2.7070109367       -0.4139592522        2.2232549010
 H          3.4981085602       -0.9363926255        1.9646048912
 H          2.9232685622        0.5139944994        2.1102394706
 O          0.7492223922        0.4728311020       -2.1663990186
 H          0.1413386613       -0.1650904220       -1.7476065076
 H          0.3942009243        1.3563293641       -1.9597228238
 O         -0.7797316034        7.8555099612        1.2440714724
 H         -0.5728141950        7.2342452834        1.9593608076
 H         -1.6688435626        7.6281925936        0.9252375557
 O         -5.4216841421        1.0164861071        1.0474661151
 H         -6.2260377498        1.2513376142        0.5622276211
 H         -5.2193434534        0.0952670860        0.7968510858
 O          1.2106945796        7.0471616048       -0.3001457251
 H          0.5137213701        7.4876999816        0.2375428814
 H          0.8754120370        7.0320633513       -1.2089234476
 O          0.9827621231       -3.0539195848        2.7656546795
 H          0.2536071749       -2.5521789766        3.1902835515
 H          1.1250788719       -2.6523579415        1.8902841647
 O         -0.0960381968        5.7580587485        2.9030613616
 H          0.5603242738        5.5371343111        3.5833140077
 H         -0.0578154150        5.0456585835        2.2421490535
 O         -1.0284520245       -3.0554085018       -3.6129025959
 H         -0.3881264548       -3.7600929034       -3.8405857568
 H         -0.4761006234       -2.2831414664       -3.4377407346
 O          2.8675921055        0.0572897333       -4.6094746502
 H          3.6290690522        0.5035547749       -5.0199184346
 H          2.3216260923        0.7543219920       -4.2182439252
 O         -2.8624035358       -4.7904745974       -4.7014965465
 H         -2.1524899677       -5.0932340905       -5.3134858376
 H         -2.6344944360       -3.8740882830       -4.4865518706
 O          1.8048053074        4.5966160028       -2.0224242820
 H          1.1798186796        5.2990454375       -2.2609269315
 H          2.6516949743        4.8720583010       -2.3840745501
 O          5.0970662084        0.1157360131       -2.9088421554
 H          4.3610646459       -0.3427923590       -2.4660522331
 H          4.7822594783        1.0312235947       -3.0179466823
 O         -5.8844571262       -2.9314472085       -3.7534370493
 H         -5.8353089147       -3.8333407209       -4.1422992110
 H         -6.4983940705       -2.4289209519       -4.3243709589
 O          1.4569066945       -4.0182926289       -1.1519496404
 H          1.4920096328       -3.4979938407       -1.9862810645
 H          1.5824477889       -3.3770955140       -0.4405044328
 O         -0.1662851679       -0.2453525203       -4.6087559362
 H          0.1938398904        0.2877178682       -5.3357707057
 H          0.3906028819       -0.0711238836       -3.8287006514
 O          2.4217648830       -6.5129430862        2.8974676504
 H          1.7258137380       -6.8872939471        2.3370405366
 H          3.2587662824       -6.7958789788        2.5184220964
 O          5.0636748893        0.4341352650        0.1045267754
 H          5.0228251530       -0.5347651956        0.1268811882
 H          4.2018001943        0.7293219218       -0.2606744153
 O         -0.9240270676        3.5117079475        1.5026323108
 H         -0.9298514926        3.0205973725        2.3438413346
 H         -0.4911505645        2.9983246481        0.8045142866
 O          1.3858262843       -1.7493024493        0.3891689351
 H          0.5396956708       -1.5154560354       -0.0248001523
 H          1.6710642388       -1.0502962696        1.0157514613
 O          0.3082923675       -6.9819208550        1.1558947965
 H         -0.3799204954       -7.1788170565        0.4861495370
 H         -0.1122639529       -6.2885910625        1.7086186240
 O         -3.2956945685       -2.4621348626       -1.7216486626
 H         -3.2746196635       -2.1900548112       -2.6581315637
 H         -3.4211637836       -3.4218344232       -1.7470876291
 O          1.6810149324        2.1247273375        1.5823997357
 H          0.9278691595        1.6041021595        1.9524610482
 H          1.3893359588        3.0281455799        1.3762865627
 O         -4.1098646664        3.0760659031        2.5694292063
 H         -3.7015311885        2.1953885890        2.5449595860
 H         -3.3984409340        3.7275725198        2.6912067373
 O         -0.1713694778        0.5516556373        2.5324473169
 H         -1.1104026154        0.6726995142        2.7527728336
 H          0.2405214120        0.1149535640        3.3001848898
 O         -4.6903047395       -4.3996805372        0.1687948648
 H         -3.8850716657       -4.0686773446        0.6305586720
 H         -4.3417545900       -4.8647051715       -0.6071485261
 O         -7.8905817417       -5.1690600069       -2.2155302553
 H         -7.4657495512       -4.3837176986       -1.7923006173
 H         -8.2577391565       -5.6851617664       -1.4601423548
 O          0.6818498145       -2.8810469207        5.8571917164
 H          0.6111203077       -3.7688102773        5.4660872168
 H         -0.1273524554       -2.7078632932        6.3739466380
 O         -4.8364323162       -1.5570410123        0.5090968150
 H         -4.2968652350       -1.7961218938        1.2859731143
 H         -4.3903523051       -1.9074812786       -0.2790956611
 O          1.6033312489        1.8993251759        5.1242441438
 H          1.5312898964        0.9274561605        5.0476521996
 H          0.8101995189        2.2494916048        4.6683315226
 O         -2.3137828028       -3.5038653003        0.9632828823
 H         -1.8938263766       -3.7386890516        0.1126406161
 H         -1.9033657365       -4.0905219721        1.6187180974
 O          4.3072295551       -2.3182212662       -4.8554139945
 H          3.9177203057       -1.5151887499       -4.4774581066
 H          5.2357590636       -2.1189587549       -5.0058628317
 O          9.6238652778       -4.4248916595        1.9634128350
 H          8.8513448788       -4.8604557215        2.3444347279
 H          9.5447699162       -3.4843827875        2.1833881211
 O          0.0604310864        2.8622742509       -1.0417070728
 H          0.8381766354        3.4050613707       -1.2712108532
 H         -0.6507967133        3.2380040471       -1.5767625225
 O         -5.9156777437       -0.3416278122       -1.9444092501
 H         -5.9161306481        0.5482390665       -1.5705713406
 H         -6.7945460065       -0.4784825500       -2.3349738531
 O         -8.1919263396       -0.2959045189       -3.3427034735
 H         -9.0679742822       -0.1538653918       -2.9327590988
 H         -8.2967602214       -0.9164046222       -4.0718053770
 O         -3.7156505291       -2.0695052793        2.8876325229
 H         -3.5516416101       -3.0314261644        2.7270743809
 H         -4.3565151291       -2.0803291963        3.6292608662
 O         -2.0545378303        3.6790211230       -2.6593009563
 H         -2.9006061059        4.0821470266       -2.9400363438
 H         -2.0691607464        2.7602785304       -3.0413112386
 O          4.1268092445        2.6630001271       -2.9841011401
 H          4.4732488139        3.2519807392       -3.6760624130
 H          3.1613622187        2.6062132336       -3.1497718395
 O          5.4551630120        3.3588800728        1.8269926054
 H          4.9558017266        3.5447323420        1.0106201779
 H          4.7808473021        3.2266510106        2.5164398365
 O          4.5800219120       -6.4519772363        0.9009843405
 H          5.3126529421       -6.1776454105        0.3118344944
 H          3.8642021976       -6.7070261328        0.2866851651
 O          6.9058728224       -5.2721710539        2.6846373235
 H          6.2251651754       -5.8679611834        2.3627041392
 H          6.5422721484       -4.7912408307        3.4579101698
 O          4.2392096527       -3.8081375612       -1.2098710675
 H          5.1123574907       -4.2349128895       -1.0786705626
 H          3.7138381570       -4.0118589720       -0.4258502696
 O         -1.3427793474        0.2780514263        5.3291133125
 H         -2.1996384884       -0.0062300944        5.6783395990
 H         -0.7234398442        0.2590998679        6.0926689410
 O          3.2507943071       -3.0185240771        4.2895700121
 H          3.0702745186       -3.1355669150        5.2386969885
 H          2.4072268180       -3.1066047555        3.8083468790
 O          3.4606256909        5.8028415847        2.6205535307
 H          3.0351787890        6.5284583735        3.0772835055
 H          2.7619047368        5.3673610797        2.0706759754
 O          3.0477917275       -2.8158048788        7.0643699288
 H          2.1006115745       -2.9654018583        6.8955046156
 H          3.1029234198       -1.8676757762        7.2671992685
 O         -1.1470863421       -4.3758315951       -1.2625200486
 H         -0.1738457847       -4.3535485074       -1.1475655032
 H         -1.3040733882       -3.9249336806       -2.1137901298
 O         -3.2858852562        2.1288552358       -5.8328826702
 H         -3.4781817220        1.3683283080       -6.4206109039
 H         -2.9781502576        1.7362135670       -4.9771901089
 O         -3.7614586022       -5.2471307931       -2.1978987993
 H         -3.2716189044       -5.1984544906       -3.0364621617
 H         -4.4980014691       -5.8567761513       -2.3797791314
 O          5.9774025838        2.3041645741        4.6898282924
 H          6.8049181750        1.8359851849        4.9059128949
 H          5.6339121048        1.8260189966        3.9103922305
 O         -2.8450376228        4.3335403590       -0.1134183323
 H         -2.1942192775        4.0092362342        0.5433530587
 H         -2.5159646685        4.0963133114       -0.9975695803
 O         -5.4946006166        6.2710834295       -1.0922323669
 H         -4.7480230171        6.7084570163       -0.6451552665
 H         -5.7245266472        5.5260841780       -0.5189432825
 O          6.3834765912       -1.8857531811       -1.4959968635
 H          6.8666862090       -1.5161983771       -0.7441394073
 H          6.0173904651       -1.1258200711       -1.9658398310
 O          6.7395149119       -0.9391577860       -4.8190769732
 H          6.2175916984       -0.5273693593       -4.0986147058
 H          7.6079823540       -0.4902162549       -4.7988426122
 O          4.4168677933        5.6350263681       -2.3418626198
 H          5.3543002851        5.5442408213       -2.1038748969
 H          4.1340784100        6.4923499824       -1.9203182124
 O          5.8701096927       -3.5592736965        4.4438924005
 H          5.9521498210       -3.4988547364        5.4289617826
 H          4.9185843777       -3.4812729232        4.2577534483
 O          4.1533802748       -0.5426407833        4.7863878866
 H          3.9298173213       -1.4489860925        4.5022823346
 H          4.4516915032       -0.0590619831        3.9955328446
 O         -0.6291910002        4.3894112001        6.1674189455
 H          0.0668470715        4.8770235767        5.7045183041
 H         -0.1425544673        3.8380071280        6.8150588901
 O          0.6456076487       -7.3478606399       -2.5596849801
 H          1.0169669308       -8.0647189223       -3.0719137310
 H          1.3124844353       -7.1173495744       -1.8679906233
 O         -2.4706441694        6.8540809431       -2.3147839659
 H         -3.1727579041        6.3089504333       -2.6797357941
 H         -2.7328625572        7.1162329531       -1.4253358341
 O         -3.2702531391        6.8867876081        0.4233916661
 H         -3.0339271642        5.9395407146        0.2972673739
 H         -3.8208054503        6.9123023919        1.2301330276
 O          5.4688189560        6.3546184410        0.9180968408
 H          4.7062646429        6.0928776132        1.4750660183
 H          6.2276458275        6.2907385330        1.5226234050
 O          5.2881518540        4.9763854398        4.6812297202
 H          4.6266879316        5.0950906380        3.9823430294
 H          5.5265971953        4.0316753371        4.6722805061
 O          2.7804338214        1.4092676109       -0.7309178868
 H          2.2709540708        1.5939687395        0.0811551382
 H          2.1704427637        0.9786862322       -1.3610939848
 O          6.2186062791        2.3760138624       -1.2881855626
 H          6.0544948392        1.6198526547       -0.6933543342
 H          5.3571109717        2.5370179253       -1.7126221687
 O         -0.7642449617       -5.0454954703        2.6272178992
 H         -0.9983253027       -5.2371228529        3.5406682062
 H         -0.0427328041       -4.3839854023        2.6819838797
 O         -9.5047346945       -1.1226474075        2.0796009894
 H         -9.5842612684       -0.1579441709        2.1938596744
 H         -8.9718635063       -1.2128192594        1.2566774323
 O         -1.1961263214       -1.9719077194        3.8589791391
 H         -1.1580139635       -1.1513219993        4.3926353619
 H         -2.0218525158       -1.9366389751        3.3456695323
 O         -3.5361124362       -1.9616191957       -4.3702049295
 H         -3.7598703196       -0.9958120626       -4.3660852506
 H         -4.4029098570       -2.3838576658       -4.1463638592
 O         -6.6466213774       -3.0806930724       -1.1680014607
 H         -5.9396499018       -3.4880384427       -0.6324438252
 H         -6.2475258909       -2.8253632289       -2.0202031082
 O          3.7956899758        7.6972836771       -0.9002722220
 H          2.8783774818        7.5698969054       -0.5932245376
 H          4.3821350785        7.4744868318       -0.1639715244
 O         -2.8899095373        0.6525324584        2.9786694745
 H         -3.2452228243        0.8827778939        3.8657095316
 H         -3.2532045879       -0.2164786877        2.7724689266
 O         -7.4822747048       -1.7831213997       -5.5870630216
 H         -7.1847394316       -0.9296890578       -5.9350019904
 H         -7.1455611386       -2.4500369237       -6.2399723516
 O         -1.1770099088        3.3792091073       -6.6854874844
 H         -1.3791814098        3.7234880098       -7.5540799207
 H         -2.0031863818        2.9158696386       -6.3629853536
 O          7.7284605454        1.9676464060        1.5056588508
 H          8.1550779650        2.7427237101        1.0926042121
 H          6.8353708567        2.2760242962        1.7528706716
 O         -8.2764214232       -1.0762815362       -0.3297508484
 H         -7.5376417765       -1.6792533298       -0.5477204310
 H         -9.0416749870       -1.4440912334       -0.8156093349
 O         -3.7937699683        0.1273023649       -7.5485493208
 H         -3.8894981938       -0.8270058447       -7.3499162976
 H         -2.8873087185        0.1757535988       -7.9155268201
 O        -10.2593668544       -2.5262629273       -1.3781594013
 H         -9.9825081495       -2.8230802265       -2.2663451086
 H         -9.9377234189       -3.2028712255       -0.7553306101
 O         -6.2162242029       -4.8099038525        3.3955558835
 H         -6.4819073541       -4.0894593382        2.7825421984
 H         -6.3176548778       -5.6129012668        2.8512229753
 O          6.7431817391        4.9698074112       -1.0145971918
 H          6.2333177900        5.4235659705       -0.3073902853
 H          6.5156026679        4.0130931352       -0.9794029507
 O         -7.9623001434        3.5217985368        3.2951645921
 H         -7.3411878739        4.0485969172        3.8225920731
 H         -8.0503030495        4.0069596814        2.4485807236
 O         -6.8704946793       -2.7831262252        1.7661954122
 H         -7.0437778522       -2.1185441253        2.4599107158
 H         -6.1878863049       -2.3977111381        1.1814822796
 O          4.5606088606       -1.9722257002        1.2339563864
 H          5.4851664573       -2.2950911100        1.2452032652
 H          4.0129777454       -2.7743912102        1.2834096864
 O          9.3720665139        0.1513761055       -1.6508744974
 H          8.6558272748       -0.0535755729       -0.9889521492
 H          9.6647921839        1.0592709728       -1.4311454927
 O         -6.2528222021       -3.5579353394       -7.0791888529
 H         -5.3651041648       -3.1836554161       -7.2097426215
 H         -6.1169818139       -4.3232715936       -6.5001624514
 O         -1.9549663601       -4.1990266606        5.1922887549
 H         -1.6213086736       -3.3839234932        4.7574865580
 H         -2.0860733676       -3.9713511481        6.1137994941
 O          7.2152009280        5.2173840965        2.6552400304
 H          6.9323528983        5.4077351535        3.5589442692
 H          6.6177132346        4.4876474257        2.3738828699
 O         -3.3905266051       -7.0784957903        1.4511914039
 H         -3.2201125105       -6.2536632725        1.9313431819
 H         -2.8163268283       -7.0847121504        0.6761419619
 O         -2.0660242397        1.2987883841       -3.6664630810
 H         -2.5291524769        0.8405083909       -2.9089436284
 H         -1.3947930599        0.6787748724       -4.0316742934
 O          3.3649137451       -1.3371575840       -1.5009062633
 H          3.8857664883       -2.1654123230       -1.4309794766
 H          2.7278647003       -1.3770437687       -0.7702519025
 O          7.3896179727       -3.2692248099       -3.5335080267
 H          7.0029079071       -2.9266947573       -2.6958224333
 H          7.2199934146       -2.5646210831       -4.1806285001
 O          0.1658952662        6.6282371787       -2.8347822259
 H         -0.7728738290        6.7917623519       -2.6306960650
 H          0.1510596593        6.1086692041       -3.6536242814
 O         -0.1402224706        4.4318904207       -4.3924401910
 H         -0.4660748143        4.1728926961       -5.2682205082
 H         -0.8640034617        4.2256344781       -3.7677565817
 O         -4.6520473280        0.3559522267       -4.1869808780
 H         -5.3261705056        0.4154853712       -4.8804973408
 H         -5.1016694613        0.1138729577       -3.3505881462
 O         -8.0138627243        4.6370376729        0.8422307519
 H         -8.6570542810        4.2722178555        0.2094992408
 H         -7.1450085433        4.2822288939        0.5947117980
 O          6.9910809813       -2.9922217539        1.2596543628
 H          7.5173125002       -3.2147138451        0.4681033951
 H          6.9275116570       -3.8333200808        1.7516296656
 O          3.3424289009        2.9978277466        3.4750454345
 H          3.0237629355        2.4984476750        4.2489357617
 H          2.7828998236        2.6889558029        2.7370816625
 O          3.5181004323        4.5293198069        6.7479615969
 H          3.8326745975        3.6387808860        6.9689460624
 H          4.2170483551        4.8849065317        6.1677629637
 O         -5.4102543374        3.8835796581        0.4122388160
 H         -5.2343859652        3.4080429623        1.2472450216
 H         -4.4920353932        4.0837704075        0.1288932740
 O          3.4492567294       -4.5879409436       -3.6406892772
 H          3.6195560478       -4.3523792584       -2.7037188907
 H          3.7441690475       -3.8100095241       -4.1457004005
 O          0.8016181325       -5.0261183402       -4.0178815270
 H          1.7628668180       -4.8556086763       -3.9323064276
 H          0.6327124692       -5.8314889400       -3.4986545132
 O         -9.1782542747       -3.8149953756        0.8292086694
 H         -8.2899593126       -3.4550518350        1.0462722767
 H         -9.7447253456       -3.5517011007        1.5563176730
 O        -10.0903134750        2.8113589426       -3.4224636162
 H        -10.4284647048        1.9178182588       -3.2795252174
 H         -9.1423996801        2.7125510476       -3.6324546116
 O         -8.4951694611       -6.3789147945        0.0512450953
 H         -7.6456567071       -6.5444757217        0.4963811213
 H         -8.8521911888       -5.5744157700        0.4601879760
 O          0.1550151019        0.2064578706        7.5227156017
 H          1.0884416727       -0.0224461588        7.3150097591
 H          0.2075922041        1.1080560368        7.8621420468
 O          6.0279193917       -5.6870886636       -3.4817637264
 H          5.1031618459       -5.4465781861       -3.6600753861
 H          6.5594569848       -4.8934128658       -3.6666903023
 O          5.8156854531       -3.1180261485        7.0260976097
 H          6.0048216345       -2.1614794138        7.0871651496
 H          4.8700923154       -3.2020309248        7.2116392196
 O         -7.3990518486       -1.0652688098        3.7849782803
 H         -8.3110120100       -1.0613907845        3.4474694681
 H         -7.0563823801       -0.1456288599        3.7193390981
 O         -6.0246991173       -6.4485790313        1.2678111964
 H         -5.6546583109       -5.6363909599        0.8585418936
 H         -5.2339330393       -7.0049915821        1.3758099046
 O         -9.2943066511        1.5296638009        2.0105650379
 H         -8.6207889489        1.5890643986        1.2960101191
 H         -9.0693581270        2.2118513305        2.6546811923
 O        -10.5643191387        0.2381933456       -2.2326882521
 H        -10.9820594503       -0.6264054879       -2.1939860790
 H        -10.7728228389        0.6700271078       -1.3732757284
 O          1.7790163489       -2.0593663768       -5.8990753846
 H          2.5970317364       -2.5354153923       -6.0657076784
 H          2.0394201678       -1.1561126763       -5.6350256948
 O          8.0143943987        0.5249395455        4.9886692007
 H          8.8602402120        0.7842140984        4.6091778068
 H          7.6983560639       -0.1995460692        4.4095013109
 O         -7.7654713308        1.5267840573       -0.2068538465
 H         -8.0117393440        0.5996917294       -0.4116707309
 H         -8.4173594172        2.1208600575       -0.6319748162
 O        -11.2828138152        1.2305546937        0.1576505896
 H        -10.6763670838        1.3807512807        0.9043375332
 H        -11.7257463888        0.3808869654        0.3632508933
 O         10.3168514407        2.5436405083       -0.8623248816
 H         10.9785967157        2.2011475496       -0.2405287989
 H          9.8155730938        3.2120874096       -0.3678335590
 O         -5.4759423004       -5.2261606701       -5.0347286189
 H         -5.6744953377       -5.9673726383       -4.4460474673
 H         -4.4992510608       -5.1330839846       -5.0347019228
 O        -11.8355948833       -1.3490485789        0.6516864133
 H        -11.1112661298       -1.3947994918        1.3034234819
 H        -11.5223068305       -1.8440480496       -0.1164792272
 O          1.7357962075        4.9017473292        4.7384716465
 H          2.2544031196        4.9083961051        5.5655013015
 H          2.2619512676        4.3182291428        4.1612295410
 O          8.6502252772       -4.0566829502       -0.5075278651
 H          9.2126298146       -4.3133577339        0.2497505217
 H          9.1946531332       -3.5922560576       -1.1682093039
 O          5.3489746675        0.6160191282        2.7087030049
 H          6.0117173056       -0.0854180717        2.8818359657
 H          5.2550215130        0.6475584933        1.7316229546
 O          2.7561991462       -0.0781725233        7.0084172070
 H          3.0750189558       -0.2321034568        6.0973997702
 H          3.2276392200        0.7277686881        7.2692586332
 O          6.0372751267       -0.4052935943        6.7550822758
 H          5.3801113355       -0.4524193806        6.0292444193
 H          6.8634431382       -0.1236100328        6.3432746356
 O         -5.6542808740        3.2589066981       -5.3165797458
 H         -5.4202730570        4.0020281787       -4.7466962634
 H         -4.7934083452        2.8155032307       -5.4920036028
 O          8.7883841340        4.2866732179        0.6007874872
 H          8.1669293791        4.6472427530       -0.0648090074
 H          8.5656255727        4.7415242077        1.4273750411
 O          8.8887195997        0.6405443182       -4.3115147560
 H          9.1011280112        0.3906645573       -3.3965765510
 H          8.1627155049        1.2979078987       -4.2395118383
 O         -1.4328467919       -2.1365989190        7.3524439119
 H         -2.2748974293       -1.7650753014        7.0450170679
 H         -0.9344207660       -1.3876998224        7.7080116478
 O         11.2196324669       -1.1765475186       -0.2416473047
 H         10.5609437999       -0.7260196121       -0.8248176291
 H         11.5037627410       -1.9496878992       -0.7333201172
 O         -7.4452573132        2.2628556467       -3.5929251614
 H         -7.6006523241        1.3011712144       -3.6708777350
 H         -6.8565491450        2.5491457282       -4.3221224246
 O         -6.3242784164        1.3456487347        3.4978046563
 H         -6.9399799220        2.1003638693        3.4428948496
 H         -5.9131900664        1.2504075819        2.6014251013
 O         -0.7918459648        2.6651483315        4.1170530479
 H         -0.9087666852        3.3653909845        4.7883739270
 H         -1.1696558981        1.8535480768        4.5013772367
 O         -9.2406048746       -3.3318391414       -3.7389511298
 H         -8.7430277237       -3.0223044155       -4.5010753720
 H         -8.7692153658       -4.1045982865       -3.3783735111
 O         -3.6719118062       -0.9397153118        6.2494009133
 H         -4.2800325805       -1.5978071154        5.8797589804
 H         -4.0829796578       -0.0760558358        6.0768471087
 O          2.2666817353       -6.5314440135       -0.5948309985
 H          2.1234862795       -5.5930625166       -0.8283765592
 H          1.5920447609       -6.7175357984        0.0965018617
 O          4.8765884932        4.6125302970       -4.7865851072
 H          5.8272004027        4.7539896524       -4.8511558022
 H          4.5829051022        5.1985882463       -4.0656109234
 O         -6.2794677825        0.6386246968       -6.3915153633
 H         -6.4006612708        1.5935758756       -6.3634167568
 H         -5.5369177028        0.4794421361       -6.9955708647
 O          3.9047528111        3.8145269388       -0.3246823214
 H          3.5349296796        2.9865264283       -0.6877718703
 H          4.0500052455        4.4179282076       -1.0739984371
 O         -5.9224620348       -6.7754326080       -2.8111496377
 H         -6.6942160329       -6.1771549742       -2.6077971220
 H         -6.1117260131       -7.6136613221       -2.3912285837
 O          0.6956124698        1.4209638026       -6.6490395130
 H          0.0527283745        2.1566123694       -6.6206688371
 H          1.5591211037        1.8297955227       -6.7673322199
 O          1.0991553869        2.8575232825        7.5387375090
 H          1.4001020560        2.4777580229        6.6753260763
 H          1.7989306681        3.4561141224        7.8090105675
 O          4.5835529210        1.9713868197        6.9784953820
 H          4.9849838606        2.1167313246        6.0937306129
 H          5.1752846686        1.3267221174        7.3887187719
 O          1.7171461429        2.4973271189       -4.0521427387
 H          1.0422175072        3.1974417098       -3.9688190550
 H          2.1422855356        2.6818593009       -4.9110073169
 O          0.9177667215       -5.4149943576        4.9038813194
 H          0.8595446173       -6.0972335944        5.5706101691
 H          1.5330968327       -5.7397765519        4.2254930548
 O         -4.9257528509        6.6658807580        2.5513411239
 H         -5.7232489906        7.0113648048        2.1003678188
 H         -5.2674295870        5.9830084031        3.1571598210
 O         -9.6558951072        3.2959646143       -0.8812350471
 H        -10.4406254517        2.9026305980       -0.4821869670
 H         -9.8365494454        3.2961826867       -1.8543515059
 O          3.1596464819        2.9546800123       -6.3100283166
 H          3.6028568722        3.7662065352       -6.0294100366
 H          3.8661407106        2.2881776938       -6.3187293384
 O          3.1508798522       -4.2489056399        1.3000689108
 H          3.7368786340       -5.0365990277        1.3013020218
 H          2.4921504032       -4.4071605240        1.9819286941
 O         -1.5435080869       -6.9879228840       -0.7907280728
 H         -1.0325847596       -7.3568235417       -1.5211838267
 H         -1.5834714928       -6.0277923562       -0.9871201612
 O         -3.3488853744        3.9867964695        5.6650453462
 H         -2.5933347565        4.1118603926        6.2485100731
 H         -3.0704115382        4.4081056840        4.8236973091
 O          9.8058775565        0.9121550558        2.8858015239
 H          9.0249883469        1.3229694017        2.4616185225
 H         10.5671368802        1.1726389604        2.3504285627
 O          9.5489701285       -1.5936830908        1.9033440714
 H          9.6806640077       -0.7961203780        2.4545697506
 H         10.2507936777       -1.5793876557        1.2309644025
 O          6.9810813968       -1.3743157717        3.3891330540
 H          7.2989946536       -1.8010042516        2.5745219412
 H          6.5677789497       -2.1158225104        3.8833526984
 O          9.7991150547       -2.6065972797       -2.4872660723
 H          9.0734491610       -2.9762870081       -3.0299037230
 H          9.6116671011       -1.6631301675       -2.4299384187
 O          6.8318535993        2.2585735583       -3.9118280476
 H          6.7022330203        2.1095089495       -2.9545124102
 H          7.0874141316        3.2016019345       -3.9804673917
 O         -5.6512607221        4.5676774677        4.1990936931
 H         -5.1713011153        3.9281395918        3.6314228228
 H         -5.1686615683        4.5747229581        5.0321281429
 O          9.8813517103        3.3196664544       -3.5481620126
 H          9.8254274050        2.4764885626       -4.0165278416
 H         10.1509538423        3.1130742920       -2.6420058498
 O         11.8731291043        1.1646243067        0.9710572212
 H         11.7559900126        0.2794434319        0.5733260106
 H         12.8063939269        1.2656459792        1.1564628688
 O         -4.2011908137        1.4582373865        5.1568028649
 H         -5.0365718485        1.5116256423        4.6485095631
 H         -3.9362684906        2.3696175731        5.3898940119
 O         -5.4497625502       -2.5368191122        4.8766083081
 H         -6.2320992737       -2.0010594053        4.6509267426
 H         -5.7005916002       -3.4507206655        4.6847523471
 O          1.4622804774       -2.2447069244       -3.1296606449
 H          1.6119891220       -2.2957850628       -4.0852504518
 H          2.1670062126       -1.6967275627       -2.7423312167
 O         -0.7582873593       -5.1355885844       -6.2566463878
 H         -0.0751721906       -5.2230875977       -5.5690039252
 H         -0.7440906800       -4.1967690976       -6.5110151408
 O          7.7684697189       -0.4015748850        0.3024636565
 H          8.3174873356       -0.9446868138        0.9062355121
 H          7.6358237730        0.4606735462        0.7448081426
 O          5.1230567698        1.1678372192       -5.7207094250
 H          5.6748188581        1.6572181096       -5.0762896204
 H          5.6402840036        0.3807617209       -5.9316782968
 O         -7.1136879662        7.2329224736        1.0682840909
 H         -7.6157768581        6.4003658598        1.0861435714
 H         -6.8240692526        7.3390015444        0.1549155767
 O         -2.6477720788        5.1863464541        3.3592601161
 H         -1.7122409322        5.4594182296        3.2581454524
 H         -3.2112276175        5.9409169920        3.1565971520
 O         -3.5771735191       -4.7172397284        3.0594358748
 H         -3.1102500247       -4.7227250517        3.9090983539
 H         -4.5320448693       -4.8419315635        3.2462823065
 O         -3.7103805578       -2.4965422209       -6.9441941889
 H         -3.5884112951       -2.3503717432       -5.9723959342
 H         -2.8645329442       -2.8145773389       -7.2677834205
 O         -4.5357969812        4.6300725039       -3.0449847239
 H         -4.9703580530        5.3051078828       -2.4901221960
 H         -4.8424487255        3.7705354701       -2.6656887258
 O         -0.8614345010       -2.3827584560       -6.4029870117
 H         -1.1951093114       -2.1672051788       -5.5177865456
 H          0.1010410214       -2.2543380564       -6.3259163079
 O          7.6045275454        4.7920391985       -3.7180544476
 H          7.4414966462        5.0141351980       -2.7901757300
 H          8.5284316310        4.4761840873       -3.7498713795
 O          6.3228121784       -5.4116155622       -0.8673647771
 H          7.2040429660       -5.0144085410       -0.7587734725
 H          6.2704231045       -5.6966207812       -1.8100252711
 O         -5.4920153253        2.4546390703       -1.8343706432
 H         -5.6867141216        2.8515404793       -0.9663953076
 H         -6.3190742609        2.4310500875       -2.3634966553
 O         -1.1734932365       -0.1575067998       -8.0221426091
 H         -1.0961427620       -0.9913888549       -7.5259086748
 H         -0.4643680571        0.4029035915       -7.6789197643
 O         -1.1146394394       -0.9671649259       -1.1695723893
 H         -1.5433011889       -0.1819301389       -0.7876819236
 H         -1.8558407315       -1.5701733144       -1.3728092464
 O         -2.3091009306        1.4969096711       -0.2495101556
 H         -2.4606552663        0.9648111475        0.5426222964
 H         -3.0903861037        2.0419955613       -0.3544802492
 O         -2.0989147727       -0.8415935338        1.1474836900
 H         -1.2190782129       -0.6589570512        1.4871240242
 H         -2.1966436584       -1.7959504724        1.0187438185
