  279
       -473.54731615
 O          7.0972019959        1.3843455131        0.6253083544
 H          7.8970166911        0.9734082808        0.2383203585
 H          7.0830397591        2.2867069986        0.2205986420
 O          3.9910518122       -2.0388072979       -5.0082755801
 H          4.7570804525       -1.8218961922       -4.4605708126
 H          3.4590818755       -2.6336159496       -4.4500072409
 O          3.3657389193       -2.7797279711       -0.2898784490
 H          3.7568141427       -2.4330111077        0.5386060054
 H          3.9995740799       -3.4022744150       -0.6538695236
 O          1.6620589745        0.1628772130        6.7414863013
 H          1.9658671129        0.2674092621        7.6427175020
 H          2.3482944224       -0.3667292891        6.2668793987
 O          2.2623370170        4.8692595620       -1.5898899653
 H          1.9521541033        4.1616264155       -1.0059135975
 H          1.9494501907        4.6402526676       -2.4765873152
 O         -4.3027278372        1.2192234942        4.5404442274
 H         -5.0812843677        0.7146456186        4.2522687714
 H         -3.7208489556        0.5796593276        4.9848966654
 O          3.2863075639        2.3217016645       -4.2229446347
 H          3.1572766924        1.9840694040       -3.3150106206
 H          3.2313286002        1.5617894306       -4.8249634459
 O          4.3352090576       -5.2156282913        1.0933107971
 H          3.9275349870       -5.2508853770        1.9647175144
 H          5.0376907460       -4.5449963147        1.1223724468
 O         -3.6880604836       -3.6181511907        0.7048375204
 H         -4.5408654606       -3.9530626604        1.0391789052
 H         -3.6119974535       -2.7187202029        1.0769267136
 O          1.7293761811       -1.4602106487        2.8165911723
 H          2.6499490063       -1.6965505662        2.5439046385
 H          1.2280301039       -1.5201099858        1.9849359023
 O          5.7240323562       -0.7988000576       -0.3405524467
 H          6.2943685804       -0.0363257414       -0.1449122907
 H          4.8331330526       -0.5382424979       -0.0030540981
 O         -1.2792153683        5.8532990804        0.9339378235
 H         -0.6143419265        6.1626472793        0.2600635291
 H         -2.0196333888        6.4570136663        0.8576108600
 O         -8.2786500483        2.0871215704        0.4297899602
 H         -8.3650566664        1.2135693095        0.8377655692
 H         -8.0046868533        1.9429828495       -0.4854667812
 O          3.1673746100        0.2387176243       -6.0189809023
 H          3.7131600151        0.3371190103       -6.7985365158
 H          3.4039398606       -0.6421060916       -5.6292424357
 O         -3.7387600874       -0.6921239996       -2.1730071883
 H         -4.5005403661       -0.2038731954       -2.5349092362
 H         -3.5071360639       -0.3104716990       -1.2897328872
 O         -0.4558973593        2.7573347751       -1.9160054003
 H         -0.9416887084        2.0348600055       -2.3574796126
 H          0.1429223770        3.1154684116       -2.6073400048
 O         -1.6447736674        0.6535878918       -3.2288876430
 H         -0.9086657590        0.0424753285       -3.4011032488
 H         -2.3582387314        0.1051039301       -2.8347573376
 O          3.2936209367       -5.6460411985       -1.3482214902
 H          2.3651173695       -5.8998457040       -1.2904280770
 H          3.6059933711       -5.6001789731       -0.4204500005
 O          2.7573588970       -4.7886401506        3.5046309833
 H          3.5590073774       -4.4524374369        3.9359304732
 H          2.0199674323       -4.4195839484        4.0272120891
 O          2.4147699880        5.0366134648        1.7060757744
 H          1.9970647314        4.3105781635        1.2182801528
 H          3.1722674338        5.3135463181        1.1637146863
 O          0.5230102211       -0.9523226485       -3.6946727078
 H          1.3424398413       -0.9498426014       -3.1651661892
 H          0.4734049391       -1.8322941599       -4.1241013162
 O         -1.6750716074       -4.6880453754        3.7397239884
 H         -2.4330955918       -4.0694113415        3.9366989038
 H         -1.7503078072       -5.4081430624        4.3652281783
 O         -2.7045308385        3.7351696930       -4.1887095994
 H         -2.4034109680        4.4793789886       -3.6333585668
 H         -1.9253918484        3.4647613814       -4.7002475621
 O          0.5318438577       -3.0704032130       -1.7334484621
 H         -0.2896023325       -2.9038493420       -2.2299658989
 H          0.4360196730       -3.9673355559       -1.3505850388
 O         -1.4766421721       -0.2450046821        2.9074410060
 H         -1.0100569144        0.5726163613        2.6262762408
 H         -0.9850230166       -1.0165415974        2.5836752162
 O         -6.1131844138        3.2783802395        1.4031719069
 H         -6.9817488622        2.8616736797        1.2138277074
 H         -5.4795406164        2.5554473123        1.5900487465
 O          7.1938871091       -2.8193117086        3.1748713656
 H          7.0418264994       -1.8660511691        3.0542989791
 H          7.0813739922       -3.1920044030        2.2888234108
 O          7.4201434057        0.2824125628       -3.0918878305
 H          6.8488657952       -0.4970712159       -3.1382933857
 H          6.8242296319        1.0325652132       -2.9133581548
 O         -3.8363982181        5.7057613391       -0.4489095042
 H         -3.9483284582        5.4802504926        0.4909435329
 H         -4.6234227195        5.3681796983       -0.8916080191
 O         -7.0199053170       -0.7379955141       -1.0546349755
 H         -6.2455370430       -0.1680847449       -0.8218113759
 H         -7.4911182780       -0.2506253355       -1.7343540613
 O          1.3190513242        2.8681811358        0.1426310002
 H          0.9869953760        2.4912069828        0.9800184679
 H          0.5728997377        2.7990230345       -0.4855282554
 O         -3.5855498559       -2.9457344534        4.1318544691
 H         -3.6643976348       -2.4605891635        3.2767917313
 H         -3.2651114563       -2.2455306408        4.7482488639
 O         -5.8691815537        3.9266722893       -1.2053950391
 H         -6.4736431062        3.3069539968       -1.6421286351
 H         -5.9645475219        3.7348096886       -0.2458235421
 O         -8.1383981461       -0.5303457530        1.3474438258
 H         -8.6485265727       -1.2981186833        1.6056624765
 H         -7.7306043443       -0.7289668155        0.4729665766
 O          1.5250017514       -4.0668646939        1.1909563643
 H          2.0001664050       -4.3740966074        1.9847553478
 H          2.1705827625       -3.5803865960        0.6378191247
 O         -6.0566080317       -0.3724973772        3.1377574201
 H         -6.7942299611       -0.2238004355        2.5249507721
 H         -6.2303508518       -1.2612774505        3.5261798103
 O          2.1577357741        1.2014825499        2.7514057764
 H          1.8513591988        0.2788429687        2.8159892835
 H          1.7958330866        1.6786890275        3.5225034892
 O          4.1918101573       -2.1483347898        2.1758425825
 H          4.4491147786       -2.7481660563        2.9048584962
 H          4.8664200694       -1.4403005583        2.1658517664
 O          4.5384043832        4.8190864605       -0.0405607292
 H          3.9305380670        4.9122200579       -0.7891779373
 H          4.4069413918        3.9160078920        0.3183608529
 O          0.6253193408       -3.3320034402       -5.0126110552
 H          0.1001704376       -4.0749816052       -4.6569253892
 H          1.5345182499       -3.5458949092       -4.7608285408
 O         -3.9635681263        1.7151978018        1.9289959439
 H         -3.3418399938        2.4173943277        1.6675923499
 H         -3.9313793232        1.6005456955        2.8987837714
 O         -3.2366173975        3.8258207775        4.4201062241
 H         -3.5908590408        4.2395590016        3.6177777945
 H         -3.7123789681        2.9966538819        4.5657705602
 O         -3.5391076575        2.7515677707       -1.7391150313
 H         -4.3446387509        3.2994257155       -1.6220198737
 H         -3.2272278122        2.9383090747       -2.6418452010
 O          3.1255002107        1.6596578677       -1.6075341388
 H          2.9909312917        0.6911588132       -1.6356829345
 H          2.6081388710        2.0117256089       -0.8656637136
 O         -2.2514673860        3.3513998446        0.6297006831
 H         -2.6351445010        3.2342538406       -0.2586456846
 H         -1.9590640261        4.2809106104        0.7202255599
 O          5.5834933312        2.2604988346       -2.5522367979
 H          4.8239607794        2.0163114836       -1.9869511346
 H          5.1814620031        2.5982493248       -3.3609115620
 O          0.2673670173        6.6555239580       -1.0141218887
 H         -0.3663746433        6.3206068076       -1.6732337130
 H          1.0964129407        6.1679470937       -1.1668767672
 O         -7.4360302580        1.8945642559       -2.3791541018
 H         -6.7382195049        1.3923350447       -2.8591472295
 H         -8.0237075941        2.2494554326       -3.0461269256
 O         -2.8383337295       -1.5663675613       -5.2152610457
 H         -3.0655601171       -0.6339176365       -5.3084524426
 H         -2.1706927312       -1.7438844613       -5.9186988652
 O          0.2335099127        5.8577932986        3.2017754395
 H         -0.3873121790        5.9323186371        2.4547639799
 H          1.0987097578        5.7241190449        2.7877391240
 O          5.7013037191       -4.4466851453       -2.0473531102
 H          6.2863542307       -4.9966214008       -2.5681303322
 H          4.8980107205       -4.9706455441       -1.8916050790
 O         -4.4275530241        5.1526508346        2.2212611252
 H         -5.1389165813        4.5204806764        1.9866365911
 H         -4.8456901124        5.8913413439        2.6636279002
 O          0.4693883050        0.4881938884       -5.9188582465
 H          1.4169002533        0.4957498945       -6.1362616512
 H          0.4382369509        0.0355770241       -5.0444973118
 O          2.6793644008       -3.6628121577       -3.2459815518
 H          2.9897186413       -4.4448114932       -2.7743767296
 H          1.9476805717       -3.3169049532       -2.6893425245
 O         -1.7718669802       -5.5579724496        0.9389809758
 H         -2.4425670287       -4.8775476728        0.7542879044
 H         -1.5983842944       -5.4964642005        1.8852164958
 O         -0.6061794795       -5.2966293819       -3.5771958279
 H         -0.2450569639       -5.6173238209       -2.7449745730
 H         -1.2367404590       -4.5881677102       -3.3498246282
 O         -1.7329368988        5.2040029190       -2.1552097603
 H         -2.4588292009        5.4170661885       -1.5405073602
 H         -1.3542412263        4.3494669951       -1.8733288495
 O         -0.5922261679        2.9169950411       -5.8075029613
 H         -0.7654097676        3.1531672005       -6.7181449613
 H         -0.2530075222        1.9879413924       -5.8213792778
 O         -0.4259330849        2.0646400982        2.0821533333
 H         -0.4233180126        2.6099392085        2.9079405171
 H         -1.0929214369        2.4932943886        1.5107107865
 O          0.6684557758       -3.3391766178        4.5130182420
 H          0.8787909480       -2.6517569407        3.8494399599
 H         -0.1330254444       -3.7902313649        4.1981573007
 O         -5.4153547837       -2.1536703106       -4.4225563782
 H         -4.5333030599       -2.0692348534       -4.8271081164
 H         -5.2984287916       -2.7626606012       -3.6874141558
 O          3.4089066344       -1.1692885642        5.2313865045
 H          2.7645612124       -1.4304049393        4.5612485252
 H          3.8827877742       -0.3966887749        4.8555170011
 O         -0.6856252646       -2.7177661433        1.9680717184
 H         -1.2624013973       -3.3795380282        2.3542087372
 H          0.0725937159       -3.2079886565        1.5961390850
 O          4.4325242688        0.9834200023        4.0162869418
 H          3.6304213995        1.0742963215        3.4239027373
 H          4.5939967986        1.8739420188        4.3391972612
 O         -5.6609196366        0.4089324162       -3.6967769083
 H         -4.9574410258        0.7879808669       -4.2671790551
 H         -5.7730769303       -0.5141335579       -4.0176395936
 O          6.1911705579       -0.3569170184        2.5541537482
 H          5.6518188382        0.1928584994        3.1554361371
 H          6.6121568009        0.2515677514        1.9284711892
 O          4.3657646167        2.4577028135        1.2665141183
 H          5.2783591916        2.1516413792        1.2730485757
 H          4.1618671715        2.8126006664        2.1543475223
 O         -0.3792541194       -1.7239058318        6.5085367467
 H          0.0349806777       -2.3575339504        5.8959171325
 H          0.2640340633       -1.0088753926        6.6306239806
 O          1.1018039232        3.7774101391       -3.8439766435
 H          0.5059634781        3.6881363006       -4.6027972061
 H          1.9200023384        3.2901805208       -4.0878599106
 O          5.4905651917       -1.7318423842       -2.7536217707
 H          5.5936744372       -1.3351183616       -1.8495465732
 H          5.5912174318       -2.6846001239       -2.6132615407
 O         -4.2736749158       -3.2342214347       -1.8648274937
 H         -3.9819821783       -3.4441689797       -0.9509908564
 H         -4.1714534375       -2.2521591356       -1.9420142262
 O         -6.3262588301       -2.9266609970        3.8410569903
 H         -6.3786014192       -3.3930802310        2.9917956182
 H         -5.4213476567       -3.0823103438        4.1617918706
 O          0.4002918297       -5.5427083787       -0.6876448745
 H         -0.4692605051       -5.7294380367       -0.2874073301
 H          0.8926908519       -5.1592716005        0.0722277578
 O          4.9370271191       -3.4214739186        4.4096429276
 H          4.6763061768       -2.6944455870        4.9925065821
 H          5.8773345749       -3.2826295261        4.1425263574
 O          8.9576349902        0.2095404960       -0.9000794360
 H          8.4316407910        0.1858511408       -1.7344545118
 H          9.7600240179        0.6871965665       -1.1084460389
 O         -5.1559987878        0.9566580652       -0.3814391721
 H         -4.7389894576        0.9589925503        0.4912145641
 H         -4.5843549518        1.5069770742       -0.9392541711
 O          3.6914416170        3.6475365477        3.6630083257
 H          2.9927150963        3.3415464481        4.2608070532
 H          3.2592513814        4.3156116076        3.0991897817
 O          3.4546315707       -0.0368011502        0.6357106122
 H          2.5480149070       -0.3452187871        0.5032094054
 H          3.4466947261        0.8732332808        0.9703706590
 O         -0.7792059798       -1.8107852350       -6.8690831698
 H         -0.2397024050       -2.4593860141       -6.3915075695
 H         -0.3562399297       -0.9496122357       -6.7124440620
 O         -3.5070683840        1.2537610112       -5.0653388156
 H         -2.7555148428        1.1236127748       -4.4444376183
 H         -3.5742072916        2.2096188166       -5.1518200228
 O         -3.8066540607       -1.3048158328        2.0331209018
 H         -4.6146413089       -0.8348476316        2.3299033279
 H         -3.0418625784       -0.7610884019        2.2975676355
 O          1.6283910040        2.3934966306        5.0887503219
 H          0.7679470129        2.8413193537        4.9758997786
 H          1.5123302024        1.6884495450        5.7445117667
 O          6.9713763408        3.6938385562       -0.6678144480
 H          6.2732900170        4.3063137029       -0.3779782029
 H          6.6249582311        3.2851550516       -1.4787496768
 O         -1.8584515802       -2.9456769132       -3.0599154535
 H         -2.1158849473       -2.4171959102       -3.8386236029
 H         -2.7015822736       -3.1750224142       -2.6268533052
 O         -0.5838287614        3.5726923774        4.2212394781
 H         -0.2739836880        4.4669458458        3.9307208017
 H         -1.5390267982        3.6744970938        4.4137932813
 O         -6.2323327058       -4.2855511596        1.3944290556
 H         -6.5449440375       -3.9516978568        0.5067448723
 H         -6.4993609607       -5.2033719914        1.4408878616
 O          2.8491219181       -0.9366331218       -2.2179526964
 H          2.8470470579       -1.5422716679       -1.4508421806
 H          3.6811541590       -1.1381766759       -2.6727694751
 O         -6.8290444909       -3.4633252463       -1.0109131048
 H         -7.0115891780       -2.5104420141       -1.0529449950
 H         -5.9555676976       -3.5550721155       -1.4417449925
 O         -2.5614076670       -0.7939057097        5.2941238197
 H         -2.0954242824       -0.5317333414        4.4739335233
 H         -1.8476506876       -1.0914264937        5.8977032472
 O          6.2939008173       -3.3119962152        0.5342211120
 H          6.4675008688       -3.7422972711       -0.3094566951
 H          6.1554028332       -2.3643663152        0.3231992099
 O          0.8659076571       -0.9949480757        0.0566261198
 H          0.2193691738       -0.3366287109       -0.2162636259
 H          0.8107552458       -1.7108717583       -0.6066903267
 O         -1.9896263534       -0.1764185751       -0.1768203817
 H         -1.8044981926       -1.0792042986        0.0937502456
 H         -2.1702990661        0.3441739223        0.6098491392
 O          8.8913669582       -2.7191548122       -0.5912458001
 H          8.4129342949       -3.0167400782        0.1867383127
 H          8.9674213890       -1.7588485913       -0.5239215815
