  146
       -243.92951811
 H          3.9688645396       -0.7889059463        0.1631019314
 C          2.9667134750       -0.7531533321       -0.2668840980
 H          3.0199232607       -1.0770681083       -1.3081481227
 C          2.4185265800        0.6704078823       -0.2077809850
 H          1.4191666905        0.6995363084       -0.6412750846
 H          3.0758004583        1.3101950371       -0.7956316097
 N          2.3346877133        1.2168503901        1.1409979590
 H          1.6177318578        0.7447446730        1.6790026550
 H          3.2250120243        1.1012040670        1.6143782486
 O          2.1790538921       -1.6643671942        0.4835324345
 H          1.2141734442       -1.4785951072        0.3081336351
 O          4.6202900197        0.4425222237        3.2972595005
 H          4.3280403789       -0.4804590268        3.1701114653
 H          5.0847794199        0.7048920863        2.4855400409
 O         -0.4665629914       -3.2842165947        2.0470575978
 H         -1.3401052024       -3.3217752514        2.5018740912
 H          0.1873267509       -3.0912517605        2.7398976717
 O          1.0933160916       -2.5103812400       -2.1336851126
 H          1.9748056073       -2.8491389098       -2.3517366668
 H          0.7041004428       -3.1767004009       -1.5272125257
 O          2.7292783906        1.7874415565        4.5379236825
 H          3.4429870290        1.3243986659        4.0297308214
 H          3.1556172954        2.1356543937        5.3213081396
 O          1.1928539767       -2.5567470134        4.1578251341
 H          1.0147818719       -3.0597742368        4.9520905855
 H          0.9964093561       -1.6056804449        4.3773936563
 O          4.4657129385        2.6963735248       -2.2429653103
 H          4.5725322213        3.1923511034       -1.4122341072
 H          4.9734787305        1.8776683799       -2.1459019320
 O          1.3578493043        3.9945967029        3.4495472890
 H          0.4247856322        3.7669564698        3.3083677670
 H          1.7828939142        3.2060824818        3.8236225192
 O         -1.2489492801        3.2418154057        2.7649454592
 H         -1.5094209978        3.7822065928        1.9800764803
 H         -2.0223654067        3.2275672898        3.3329842219
 O          0.6919358030       -0.0281961479        4.6629695848
 H          1.4608092167        0.5618519934        4.7537167334
 H          0.2773186516        0.2472596140        3.8201144762
 O          5.4764061621        1.2925502378        0.8173327822
 H          5.3125699710        2.2383540886        0.6828989292
 H          5.5884752638        0.9130894654       -0.0633178029
 O         -1.9809621701        4.6710658181        0.6249876700
 H         -1.1890397360        4.4815715286        0.0792426406
 H         -2.7356146801        4.4729254578        0.0623394675
 O         -0.0917897673       -4.3205434554       -0.4772053504
 H         -0.2076488670       -4.0477742112        0.4498916704
 H         -0.9866277507       -4.2890925408       -0.8633606142
 O          2.6589744117       -4.3187454982        0.0042668895
 H          2.4638477852       -3.3797816580        0.2049479154
 H          1.7968475107       -4.7304989420       -0.1245255386
 O          0.1480519284        3.7672156481       -0.7376691422
 H          0.0345021819        2.8062235413       -0.7619776748
 H          0.9344455795        3.9251846755       -0.1682111050
 O          1.3582791815       -0.3273429360       -3.8298797340
 H          1.2628844003       -0.9167427341       -3.0650189287
 H          1.6061227666        0.5655968346       -3.5143822406
 O         -0.4043012859       -1.1835615637        0.3939081091
 H         -0.5732181850       -1.9783585107        0.9386118473
 H         -0.4595910453       -0.4347057096        1.0128071296
 O          2.2464840598        2.1922900035       -3.5563093059
 H          2.5941636480        2.2646447257       -4.4471159447
 H          3.0153405530        2.4125674231       -2.9721046097
 O         -5.7230445817        0.0933859011        1.7911392158
 H         -5.0224593054       -0.1268809642        1.1264979723
 H         -5.8442232300       -0.6960547685        2.3206422935
 O         -2.5206391447        1.7813681388        0.5808261023
 H         -1.6790155034        1.5825480812        0.1135074754
 H         -3.0077390065        2.3692525939       -0.0330616088
 O         -2.6303742809       -0.3369996219        3.7625945079
 H         -3.1813539097        0.4655795934        3.5576386903
 H         -2.2890305539       -0.2292501279        4.6517674167
 O         -3.7844458455       -0.4360782459        0.0674274791
 H         -3.2074762476        0.3195920645        0.3324145537
 H         -3.8688539980       -0.3636120778       -0.9047412643
 O         -4.0098179583        0.0939645058       -2.5710979586
 H         -3.2777405897        0.6510987585       -2.8629939832
 H         -4.7882915366        0.6785265936       -2.5120559615
 O         -4.1796562086       -2.9427730468        0.7730007214
 H         -5.0622766078       -3.0120464883        0.3769080560
 H         -3.9078769071       -2.0197250427        0.5828797111
 O         -1.1090316060       -0.2022318518       -4.7784260374
 H         -1.1712916912       -0.5574829786       -5.6640898023
 H         -0.1538163867       -0.2364720896       -4.5202374225
 O         -1.3956731205       -1.3162192306       -2.2345112443
 H         -1.5397834337       -1.0602905443       -3.1561136851
 H         -0.5209934806       -1.7310434896       -2.1978841795
 O          5.9744964588       -2.4343837431       -0.8245215261
 H          5.6614160636       -2.8533235665        0.0212263390
 H          6.8378011003       -2.8102055321       -0.9976540834
 O          3.5031482068       -1.9996974684        2.8071302178
 H          2.8287718287       -2.3161067206        3.4295982194
 H          2.9987766387       -1.8175608360        1.9898768280
 O          4.0638407600       -1.0353025456       -3.8987271787
 H          4.0291918591       -1.9475247437       -3.5834783037
 H          3.1452388841       -0.7855370576       -4.0834146634
 O          5.5090773610        0.1233169111       -1.8658008958
 H          5.8024399707       -0.7018633956       -1.4502358666
 H          5.0389479327       -0.1792174322       -2.6670187721
 O          3.8056960121       -3.3728507836       -2.2766609402
 H          3.4565379956       -3.9498953430       -1.5720970990
 H          4.6113633556       -2.9972848980       -1.8775896635
 O         -3.7016641178        3.1850654778       -1.3627749261
 H         -3.1592566888        2.9611035497       -2.1313910122
 H         -4.5831877748        2.8167478279       -1.5360058242
 O         -0.5487992456        0.6625772970        2.3689504516
 H         -1.3452873424        0.2324231233        2.7411893829
 H         -0.7431565156        1.6231622862        2.3834750971
 O         -1.9867106845        1.9747758512       -3.3647194529
 H         -1.7342747019        1.3124190524       -4.0295461724
 H         -1.3304862062        2.7160041468       -3.4828941303
 O          4.7134531575        3.9109304440        0.2092266594
 H          5.0894520641        4.7774918962        0.3602733432
 H          3.7636799142        3.9568798854        0.4999772538
 O          5.0514134459       -3.6995132554        1.2977509333
 H          4.6534265159       -3.1113163865        1.9647708859
 H          4.3073283660       -4.1883998683        0.9163864293
 O         -3.8919896737        1.8035443183        2.9413809636
 H         -4.7294314144        1.4217921959        2.6304123724
 H         -3.3618250631        1.9352305671        2.1328438474
 O          2.1962585356        3.8354302648        0.9409274761
 H          2.2061419183        2.8325427432        1.0033073126
 H          1.9345759045        4.1135767970        1.8473618509
 O         -6.4084617505       -2.5436942594       -0.8305802865
 H         -7.1182623804       -3.1469761580       -1.0495375766
 H         -5.7876204530       -2.5542609708       -1.6161431069
 O         -0.6633740285        1.1129088774       -1.1729166691
 H         -1.1372914732        1.4173556463       -1.9735280215
 H         -0.8007084599        0.1473292449       -1.1517908230
 O         -7.2361945880        0.0696474331       -0.4973459521
 H         -6.9061522747        0.2359797529        0.4018671775
 H         -6.9737729078       -0.8505843652       -0.6912813635
 O         -2.8593226297       -3.0627172986        3.1759378937
 H         -3.4219188112       -3.1566275949        2.3896655899
 H         -2.8493581849       -2.1170815853        3.3912185721
 O         -2.5865746991       -3.5760064085       -1.3543173254
 H         -3.0721973736       -3.4853636656       -0.5124094083
 H         -2.1854789885       -2.7012460534       -1.5388697364
 O         -4.6928421825       -2.5926987364       -2.7967508620
 H         -4.3852830460       -1.6758610280       -2.8768923577
 H         -3.9396078187       -3.0975544319       -2.4287291093
 O         -0.0512451631        3.7290416912       -3.4375654239
 H         -0.0155601295        4.0115943338       -2.5053325114
 H          0.7649800270        3.2124488319       -3.5550338595
 O         -6.0262480513        1.8019157474       -2.0361074140
 H         -6.6957241526        2.1770521699       -2.6077894163
 H         -6.5064442028        1.1765140943       -1.4231460466
