  282
       -473.35889414
 H         -2.1300776225        0.3802898421       -2.4973463302
 C         -1.9503905876        0.1112671909       -1.4563402817
 H         -2.1679386439        0.9662841146       -0.8194373793
 C         -0.5079786977       -0.3095754404       -1.2453672014
 H          0.1282040536        0.1912423726       -1.9646955200
 H         -0.4224419039       -1.3820513541       -1.3939584328
 O         -2.8462867704       -0.9231743374       -1.0765366962
 H         -2.7264795418       -1.6402364008       -1.7408150585
 N         -0.0700040766        0.0420136100        0.1121960551
 H          0.7588128199       -0.5333295183        0.4002776221
 H         -0.8234200754       -0.1038265002        0.8316688258
 H          0.1634241760        1.0486182378        0.1333833980
 O          2.9981171377        3.5367461444       -0.5681189475
 H          3.3720088246        4.0440218519        0.1842446945
 H          2.3006402119        4.1096515600       -0.9555380014
 O          2.6901933185       -0.9061996734       -1.9588785657
 H          2.0719502074       -1.4769694930       -2.4765131042
 H          2.3196809779       -0.0030868907       -2.0321314332
 O          1.6807168876        1.5434137585       -2.4392063796
 H          2.4261764001        1.9927774605       -2.8971457585
 H          1.3521974301        2.1196618968       -1.7239325000
 O          0.4998974149       -3.5498029848       -0.4621240150
 H         -0.3482138084       -3.3600601369       -0.0211052864
 H          1.1556016970       -2.9809962009       -0.0028676959
 O          3.0165656697       -4.9937508930        0.9103809165
 H          3.7358472512       -4.8759431806        1.5518156727
 H          3.2602665151       -4.4408947904        0.1462758272
 O         -6.1972875143        0.5413768894        3.1012840197
 H         -5.5876256285        1.1962198730        3.4766195633
 H         -7.0877525248        0.8436128166        3.3375908683
 O          3.9678701378       -1.6514789694        2.1879900790
 H          3.9729704512       -1.2319106347        3.0699341662
 H          4.2323304293       -2.5949126650        2.3466673185
 O          0.2532432426       -1.3334056278        2.7410704597
 H          0.7618294680       -2.1373787806        2.5289166629
 H          0.2539235518       -1.2835028578        3.7154763665
 O          0.6085881148        4.7157213880        1.2148274998
 H          0.7658345373        5.4735216222        0.6480035877
 H         -0.3624080773        4.6389263831        1.3291951587
 O          0.4809315199       -1.3490568457        5.4464802379
 H         -0.4214200059       -1.3457137654        5.7929845484
 H          0.8071773972       -2.2697360591        5.4854787360
 O         -1.9675206077       -0.0810297614        2.0087743702
 H         -1.5292674473        0.3062742838        2.7927607102
 H         -2.7004284233        0.5250763654        1.7689943677
 O         -0.7398640512       -0.8953759190       -4.6759472570
 H         -1.1613641741       -1.5191936243       -4.0528467117
 H          0.2102530770       -1.0020344898       -4.5185605627
 O         -7.6936525401        2.4736434374       -1.7289498361
 H         -7.7634281631        1.8623706681       -2.4716955035
 H         -7.5009073880        1.9111321586       -0.9678888403
 O         -1.9881015947        3.4937979244        3.9824919852
 H         -1.9048487657        3.7246924442        3.0433401278
 H         -1.6731649969        2.5679200126        4.0684715398
 O         -1.1262914636        1.0055568336        4.2779913524
 H         -0.2450996428        1.1538226213        4.6890287100
 H         -1.5974967254        0.4218711509        4.8962619616
 O         -3.3805535745        2.9586415802       -0.8637288208
 H         -4.1804949880        3.4547510025       -1.1469013242
 H         -2.8087239938        2.9666431591       -1.6588164865
 O          0.9498922419       -4.1953794910       -5.0493825095
 H          0.0953502532       -4.6443788833       -5.1493988069
 H          1.0067988489       -3.5373612917       -5.7775911407
 O          2.1489910186       -0.5398126608       -4.8355898062
 H          2.5677721729        0.3213741023       -4.8902972634
 H          2.8280688623       -1.1679171728       -4.5253873469
 O         -1.4667426967       -5.5671983197       -4.8230701583
 H         -1.3253318986       -5.4547564269       -3.8504384680
 H         -1.3581143682       -6.4979630488       -5.0186690281
 O          3.1732653283        0.9809580045        0.1656890336
 H          3.0944164804        1.8710948392       -0.2193187052
 H          2.4698268906        0.9336326967        0.8556715268
 O         -1.2132523081       -4.5396054449        3.2579066020
 H         -1.8179235667       -4.9765002845        2.6413952086
 H         -1.6481453184       -3.6968337819        3.4723921171
 O          0.4500133638        4.1342939493        5.1918722547
 H          0.6191285197        3.2959074735        5.6348776779
 H         -0.4566103440        4.0786984898        4.8434508835
 O         -6.6772727267        1.1308954396        0.5684899122
 H         -6.3311044008        0.9076518519        1.4697906448
 H         -5.9741024011        0.8851859698       -0.0741448241
 O         -7.0234749668        0.0106268686       -2.9806069781
 H         -6.6651343470       -0.6092799011       -3.6265237335
 H         -6.2421889517        0.2962148920       -2.4662280242
 O          4.9449819867        0.3492040815       -2.7120349523
 H          4.1883271656       -0.2032464861       -2.4384562092
 H          5.6005272430       -0.2749875652       -3.0884997862
 O          1.9876080476       -1.6092001967        0.4854073342
 H          2.6701744813       -1.6275178530        1.1897141908
 H          2.4265997559       -1.3092317230       -0.3369688703
 O          4.2673636559       -0.5821772588        4.6468893374
 H          3.8975458327        0.3077355972        4.6854119734
 H          5.2179566686       -0.4763247069        4.4772724353
 O          1.2944007033       -3.8840524001        5.0989778942
 H          1.3774270081       -3.8445046707        4.1142615086
 H          0.6593107052       -4.5804345357        5.2725056958
 O         -3.7557081604       -4.8912042869       -1.3115552171
 H         -4.2596496602       -4.0549451174       -1.3116128686
 H         -3.6145097496       -5.0703300524       -0.3610443665
 O          3.7189487390        6.4844529288       -1.1556366695
 H          3.9452166425        6.2484636738       -0.2462591104
 H          4.3302749609        5.9885651420       -1.7187822308
 O          0.8790499596       -2.5395476929       -2.9327993916
 H          0.9610462930       -3.1551770603       -3.6855282517
 H          0.7520814256       -3.0794862450       -2.1316021639
 O         -4.9588366688        0.6740888097       -1.3786223757
 H         -4.4303889179        1.4859624674       -1.3901420043
 H         -4.3219939148       -0.0576600312       -1.2488739417
 O          2.7554722477       -5.1608018769       -3.2051969493
 H          2.1760625476       -4.9093345490       -3.9416502628
 H          2.1890510125       -5.6426682291       -2.5731907694
 O         -3.4442409190        0.2013352322       -4.2799725292
 H         -4.0401632593       -0.5592421606       -4.1159232470
 H         -2.6691601745       -0.1404427454       -4.7349758897
 O         -5.0816353080       -1.8517182766       -3.7489291982
 H         -4.8712935953       -2.6842809671       -4.1872207370
 H         -5.0533464299       -2.0518907631       -2.7899386596
 O         -5.4508583913        3.9506149131       -2.1491705672
 H         -5.1941276802        3.5827718649       -3.0109786952
 H         -6.3235900027        3.5507195553       -1.9584124790
 O         -5.8933579151        4.7862591968        2.8021232851
 H         -5.2638644365        5.3012160322        2.2721041519
 H         -6.5950956279        4.4885884616        2.2039089742
 O          4.9117213736        4.1837326831       -2.3223927747
 H          5.7054690163        3.6744189606       -2.1002307190
 H          4.2440834716        3.9081850617       -1.6540204427
 O          4.8057359849       -4.0585661506        2.7678763888
 H          4.5396904346       -4.0080354783        3.7125241454
 H          5.7456390221       -3.7802569314        2.7664167636
 O          4.9455362238        1.5140680540        2.0490444784
 H          4.3362801634        1.2522113646        1.3190309163
 H          5.4897507424        2.2525142664        1.7013775590
 O          0.2201388047        2.7005014376       -0.4887388182
 H         -0.4261493286        3.3070727467       -0.8871775323
 H          0.6121838042        3.2206033592        0.2362288255
 O         -4.5365950660        2.6785461351        3.6144450944
 H         -3.6831675144        3.0256353413        3.9445345587
 H         -5.0812616245        3.4764132318        3.4129564638
 O         -2.0494061779        4.2178355430        1.3154014622
 H         -2.6704723472        4.9608101277        1.4421613371
 H         -2.3355884115        3.7985139952        0.4875498523
 O          1.3930106788        1.0265892247        2.1222465678
 H          1.0091284065        0.1785112646        2.4234602904
 H          1.9416869704        1.3600417309        2.8530281040
 O         -2.2621991929       -0.9905134565        5.7775152179
 H         -2.5150241564       -1.5138284972        4.9779377446
 H         -3.0258517047       -0.9562329193        6.3519833628
 O         -8.7776870647       -0.3788112423        1.2821573085
 H         -9.1544475730        0.1161132183        2.0163309191
 H         -8.0758346142        0.2037772973        0.9266863067
 O         -3.8331503766       -4.3084626433       -4.1465274425
 H         -4.0083503860       -4.8011619922       -3.3340078049
 H         -3.1440351780       -4.7973437413       -4.6264542071
 O         -5.1453651113       -2.5339668762       -1.1288300417
 H         -4.8034119610       -2.0794499504       -0.3268249214
 H         -6.1110812193       -2.4206402194       -1.0942298851
 O         -3.9675270528        1.4733830697        1.3546608397
 H         -4.1746172896        1.9779520283        2.1799452117
 H         -3.7625786684        2.1122823215        0.6592909599
 O          6.2551768334       -2.7903436606       -1.1602979364
 H          5.4395662237       -3.3264057617       -1.2341051672
 H          5.9461722515       -1.9863962022       -0.6811787817
 O          4.2155461488        4.9955261894        1.2918467655
 H          3.7790036582        4.9241625772        2.1537583252
 H          5.0921407774        4.5902389186        1.3598856631
 O         -8.6770524707        1.8153036694        3.1684401670
 H         -9.0438469405        2.2638177731        3.9305581561
 H         -8.4428870977        2.5111082814        2.5255122112
 O         -4.5599392284       -1.3010462266        1.1755329852
 H         -5.4202071758       -1.4785501319        1.5841177200
 H         -4.4224816580       -0.3458171250        1.2274269129
 O          3.7162365443       -3.5414765525       -1.3260998838
 H          3.4283426021       -4.1514489570       -2.0394258261
 H          3.4510430861       -2.6605363003       -1.6192283213
 O          5.3836855912       -0.6837268029        0.1904519083
 H          4.9612413601       -1.0537593031        1.0039559434
 H          4.7075580251       -0.1066301423       -0.1931134309
 O          8.0157964864       -0.1858323254        0.2957103770
 H          7.0345248099       -0.2550976700        0.3060214510
 H          8.3342189334       -1.0924116020        0.4354348804
 O         -1.2419003892       -5.0688815056       -2.2424340472
 H         -0.6129883630       -5.6001548124       -1.7404323699
 H         -2.1211717541       -5.1130846105       -1.8077043941
 O          6.5328782144        2.1387151879       -1.4775350606
 H          5.8578812729        1.4998022712       -1.7859099409
 H          7.3595292546        1.7873482772       -1.8320684078
 O          1.1931801065       -6.0269606147       -1.1063919189
 H          1.7986810623       -6.3921540846       -0.4563649921
 H          1.0223970981       -5.1121158069       -0.7895203824
 O         -3.9514933318        6.1325189322        1.3390191292
 H         -3.8284062872        7.0270959978        1.6563677023
 H         -3.9664182721        6.1816968132        0.3458436022
 O         -1.2350392240        4.8774800327       -1.4738168742
 H         -0.3576545606        5.2731416434       -1.6076033502
 H         -1.4676423910        4.4401765735       -2.3109521671
 O         -4.5674326568        2.6062690327       -4.4199855733
 H         -4.2428184114        1.6788063118       -4.3609654705
 H         -4.9609422613        2.7066517081       -5.2862784511
 O         -2.1445354674        3.1229194270       -3.2314827237
 H         -1.4412912598        2.5918798838       -3.6735412124
 H         -2.9242804275        3.0889348853       -3.8038336007
 O          1.2343442073       -3.7830943556        2.4518162473
 H          0.3713948613       -4.2340853305        2.5105158621
 H          1.8326569406       -4.2978570565        1.8637522902
 O          6.5043678278        3.3527243495        0.9775237325
 H          6.5372565596        2.9860444772        0.0729395424
 H          7.2988060821        3.0174791902        1.4269293807
 O          0.9168074465       -2.1159864425       -6.7250635747
 H          1.4941482536       -1.5030933561       -6.2373132176
 H          0.0271145637       -1.7700165524       -6.6023223105
 O          8.4626274489       -2.8737427960        0.3162507769
 H          7.6741149543       -3.0148379508       -0.2564593590
 H          9.0520129009       -3.6142457637        0.1767205800
 O         -3.1958519565       -4.7379948920        1.3158585650
 H         -2.6754755774       -3.9286026456        1.1290196282
 H         -3.9383318928       -4.4471358396        1.8670533450
 O          6.7310784297       -1.4871959368       -3.4507460179
 H          6.6483869725       -2.0628100552       -2.6582382886
 H          7.4910461292       -0.9132685510       -3.2734530793
 O         -0.1941453055        1.7623319273       -4.3370943403
 H          0.5053697950        1.6186059830       -3.6632784661
 H         -0.4653108174        0.8722929531       -4.6180938107
 O          1.4267486491        4.1176782010       -4.2263493447
 H          0.7371229189        3.4977296091       -4.4926346949
 H          2.2643524371        3.6749381300       -4.4055367313
 O          4.0238615091       -3.3929215510        5.2328493078
 H          4.0786459010       -2.4289287173        5.2250757139
 H          3.0938252717       -3.6155809237        5.3784950497
 O          7.1492121325       -2.7971822326        2.7751204880
 H          6.9824870420       -1.8657338150        2.9935191451
 H          7.6904908469       -2.8128650464        1.9739527171
 O          1.1450810389        1.2990161285        5.6145481483
 H          1.9479486227        1.5152845949        5.1170377816
 H          1.1704295750        0.3452788749        5.7884956275
 O          3.1882640216        1.9784503689        3.9344939048
 H          2.9356406338        2.9205735432        3.8018537289
 H          3.9215961861        1.8300600410        3.2934289029
 O         -1.6400081775       -2.5819403919        0.8287604660
 H         -2.2234430007       -1.9292594425        0.4046866340
 H         -1.2031754384       -2.1362783629        1.5729504905
 O          6.6405894984       -0.1084066074        3.3082168232
 H          6.0093905915        0.4025400946        2.7556602464
 H          7.4203555292        0.4511978957        3.3654328631
 O          8.5297914381        0.3259672602       -2.2780159901
 H          8.4013262790        0.1006824303       -1.3268075838
 H          9.4722179152        0.3835750059       -2.4315301811
 O          8.4693393120        1.7763981622        2.0910894000
 H          9.4049692431        1.9630462970        2.1615246261
 H          8.3656029203        1.0575197701        1.4304081863
 O          3.7093313534        2.4090037305       -3.9177417853
 H          4.2503036105        1.6356792636       -3.6610075041
 H          4.1792744804        3.1701391452       -3.5125518504
 O          4.0451326504       -2.3488565501       -4.0320427760
 H          3.8982608723       -3.2893461258       -4.1586390898
 H          4.9915254722       -2.1843547677       -4.1161458155
 O          1.4079136679        5.2952367099       -1.7924199266
 H          2.1427850957        5.9346374017       -1.6799434659
 H          1.4464743013        4.9816743313       -2.7194191573
 O          2.3511679941        4.4237987590        3.3195172471
 H          1.7542241638        4.5147789729        4.0917457683
 H          1.7450121946        4.4573989320        2.5584812379
 O         -7.7381734577        3.5090680192        1.1771430125
 H         -7.2326651039        2.7142932691        0.9021675604
 H         -8.1990154823        3.8154158952        0.3935757330
 O         -3.7442019029        6.0916396802       -1.2665692087
 H         -2.8551099362        5.7093433772       -1.3771622271
 H         -4.3762435261        5.5040015647       -1.7014309025
 O         -2.0866991685       -2.5931327111       -3.0063606300
 H         -2.7906895765       -3.0686800175       -3.4897116272
 H         -1.4997925508       -3.2941757231       -2.6799543887
 O         -5.1158076179       -3.7110277738        3.0656779215
 H         -5.4948191573       -4.2728900901        3.7413308366
 H         -5.8568509620       -3.2472608301        2.6318761812
 O         -7.7687272976       -1.7978536971       -1.0649501916
 H         -7.6609125021       -1.1519319229       -1.7918693492
 H         -8.4178835506       -1.4177275769       -0.4644901003
 O         -7.0604296214       -2.4029488077        1.7170879929
 H         -7.7204752444       -1.6802083377        1.7752340107
 H         -7.2165027002       -2.8039966320        0.8565462556
 O         -2.8056502567       -2.2316431570        3.5141602301
 H         -2.6616729027       -1.5094715939        2.8691772904
 H         -3.6744995850       -2.6159350575        3.3182896213
