  135
       -229.09840346
 O          1.3532552205       -0.1774651255       -0.0037296267
 H          1.0780695218       -0.1045852110       -0.9291664360
 H          0.6261888741       -0.6245131572        0.4665520367
 O          0.9342901404        4.4952621139       -1.7749485095
 H          1.1750181560        3.7000928059       -2.2888220878
 H          1.6708299736        4.6270837853       -1.1743027180
 O         -0.7166350639       -3.2790592384       -3.6060524663
 H          0.0522701587       -3.7532578872       -3.9447616641
 H         -0.4178264294       -2.9512016660       -2.7167992662
 O          3.5229471863        1.1331580660        4.3361990894
 H          3.9236704426        1.6668212865        3.6261561943
 H          3.2624209957        1.7548163431        5.0180785207
 O         -0.3006314603       -1.5578099471        4.0798656120
 H          0.5479793355       -1.8154146277        4.4418897228
 H         -0.5202696153       -0.6757787822        4.4824136992
 O         -3.7664668501        1.1570986614        1.9762450840
 H         -2.7980275722        1.2443017102        2.1210828249
 H         -3.8668216169        0.3534321395        1.4177552917
 O         -3.3001433030       -3.2775899143        1.8998381701
 H         -3.1291988059       -2.9250401744        2.8180430462
 H         -4.0215803640       -3.9010482543        1.9815539943
 O         -0.0379006021       -2.4414419098       -1.2048283248
 H         -0.5975916171       -1.6349362753       -1.1591332259
 H         -0.4875248174       -3.0798438283       -0.6156072135
 O         -1.0404335903       -0.8034127130       -4.5365252175
 H         -1.9486283592       -0.5967120351       -4.2609741723
 H         -0.9299828679       -1.7623366558       -4.3572589518
 O          2.4294607549       -2.9178121783       -0.2100823434
 H          1.6204792262       -2.5318574979       -0.6045683177
 H          2.4139590044       -2.6367924092        0.7261246391
 O         -2.8815267248       -2.3374069986        4.2866810680
 H         -1.9278535901       -2.1421882135        4.3375121615
 H         -3.3149532126       -1.4767807008        4.4134387045
 O          1.9453287430        2.2768060368       -2.9946512888
 H          2.3977654455        2.0714341131       -3.8203793217
 H          1.4148960122        1.4596557285       -2.8014293032
 O         -1.1659570066        1.4580641585        2.2156060625
 H         -0.9915936992        2.4059718223        2.0846095848
 H         -0.3844126037        1.1188044733        2.6891990997
 O         -0.2189345461        3.1181640204        4.5799596454
 H          0.7385466038        3.2071078692        4.4505516864
 H         -0.6031365919        3.5794349717        3.8249532433
 O         -2.9016965423       -4.1507191310       -2.1186695088
 H         -3.5402141168       -3.4217556829       -2.0890109138
 H         -2.2480130927       -3.9136619506       -2.7977760363
 O         -1.7460586319       -0.4304036285       -1.1865408148
 H         -1.2599016639        0.4175723839       -1.0874220934
 H         -2.2582519773       -0.3761795405       -2.0214034975
 O         -3.1278102698        2.7639902249       -0.1468113330
 H         -2.9095917078        3.6772497319        0.0633095927
 H         -3.5055753193        2.3315843200        0.6433350697
 O         -3.7201110473       -1.0333970338        0.4337632140
 H         -2.8917736610       -0.8119020538       -0.0638137831
 H         -3.4965675916       -1.8149820763        0.9739234854
 O          2.2461143635        3.7885659267        3.5456342754
 H          1.7326751685        4.4176646480        3.0340051165
 H          2.8241020115        3.3327918719        2.9112616959
 O          1.3375624515        0.5483548287        2.7587547922
 H          2.0318465853        0.7474463700        3.4078418670
 H          1.4973881562        1.1333784535        1.9935611689
 O          1.4229721979        2.5144558493        0.7826167218
 H          2.2328374231        2.6521366613        0.2491361383
 H          0.7667203838        2.1325124227        0.1670149431
 O         -1.4518386446       -4.2860643239        0.1173475312
 H         -2.0679431138       -3.8809072499        0.7517269212
 H         -1.9923940675       -4.3988967742       -0.6992565350
 O          2.0840712810       -2.0884581738        2.3378963862
 H          1.3885739953       -2.7626068507        2.4594395549
 H          1.6651612183       -1.2072957545        2.4004752715
 O         -0.6502286396        1.9653577380       -0.9283347481
 H         -1.4843126679        2.3110357229       -0.5594348030
 H         -0.6287871368        2.2725109799       -1.8541784813
 O         -0.8114589991       -1.1705309734        1.3725894698
 H         -1.1051829620       -0.2527632234        1.4296057637
 H         -0.5961873958       -1.4203168587        2.2840812386
 O         -1.3844931892        4.9883380230       -0.4694719782
 H         -1.5898222856        5.8752604384       -0.7632651256
 H         -0.5920730971        4.7096373336       -0.9809389261
 O         -0.3845330429        4.0803229947        1.9131031544
 H         -0.8215434566        4.5040141943        1.1581999747
 H          0.3843803324        3.6047576077        1.5249966445
 O          0.7348709507       -0.0249867239       -2.6733988273
 H          1.4506718874       -0.6369099667       -2.9536009980
 H          0.0026533692       -0.2105193912       -3.2987406420
 O          2.6969318144       -1.5552583970       -3.6000873905
 H          3.3819149361       -1.5406575101       -2.8847521994
 H          2.3960683911       -2.4800685016       -3.6603708820
 O         -3.6071073839        2.3298506739       -2.8519303761
 H         -2.7265149955        2.5799590703       -3.1801290661
 H         -3.5748451286        2.4718424916       -1.8930119283
 O          3.9088608595        0.3206222062        0.4932299876
 H          2.9547012196        0.0986763749        0.3730124599
 H          4.2294385711       -0.2567968106        1.2262777072
 O          1.3927704497       -5.1833920566       -1.2191944960
 H          0.4880441237       -5.1600630581       -0.8950381547
 H          1.8778553413       -4.4934699038       -0.7200723908
 O          3.5259645213        2.7273460464       -0.8774259942
 H          3.0344395691        2.5703193421       -1.7107246601
 H          3.9188770739        1.8749201628       -0.6508134825
 O          4.1735357803        2.4671387131        2.0525898444
 H          4.0336959816        1.6930765521        1.4512256591
 H          4.8160186042        3.0260780720        1.6162736233
 O         -1.1326443445        0.6410040096        5.1971393141
 H         -0.8075478287        1.5412292230        4.9993947985
 H         -2.0838327589        0.6385296281        5.0198723739
 O          4.5375365125       -1.0412474021        2.6921904138
 H          3.7731482149       -1.6414736650        2.6512547807
 H          4.3638132571       -0.4522234239        3.4348459094
 O         -3.8622884788        0.2552352190        4.4760817410
 H         -3.9314251564        0.6148923082        3.5578103129
 H         -4.6168914212        0.5834083439        4.9634073080
 O          0.0936967094        1.4793314751       -5.4743890771
 H         -0.3696325146        0.6330780024       -5.3607653281
 H          1.0373761719        1.2633361937       -5.4050339851
 O          1.8868682654       -4.2066508613       -3.6448446742
 H          2.5454395866       -4.7899822337       -4.0210742896
 H          1.6944852474       -4.5669966455       -2.7411592589
 O          2.7657816833        0.6785185004       -5.1367485146
 H          2.7541261768       -0.1572384318       -4.6241574777
 H          3.3187036047        0.5183720757       -5.9007544688
 O         -4.8029663078       -2.0553169123       -1.7701160685
 H         -5.7178419961       -2.2973522079       -1.6326009090
 H         -4.4762422169       -1.6609410112       -0.9230112795
 O          0.1356227211       -3.9771224909        2.4585312401
 H         -0.2446813320       -4.1952528692        1.5977410630
 H         -0.5928868121       -3.6873893976        3.0121445494
 O          4.3266732445       -1.5713532444       -1.5345300774
 H          4.3790547161       -0.7954623163       -0.9564985678
 H          3.7596727298       -2.1995220210       -1.0375398342
 O         -0.9498765153        2.8662079324       -3.4775698911
 H         -0.6470399636        3.7670583098       -3.5961826789
 H         -0.5650523620        2.3443166861       -4.2284201955
 O         -3.3661279274       -0.2616237359       -3.2996654462
 H         -4.0700812967       -0.8220054761       -2.9437630513
 H         -3.6242507855        0.6842887154       -3.1934859686
