  131
       -218.46046623
 H         -2.0627292428        2.1593570214       -0.8224781627
 C         -1.4349279031        1.2989661843       -1.0487985481
 H         -1.3333109529        1.2006080620       -2.1306315029
 C         -2.0580764062        0.0177139696       -0.5104889461
 H         -1.3735362896       -0.8187681912       -0.6994776561
 H         -2.9835755653       -0.1643431643       -1.0558856055
 N         -2.3788120452        0.1587487604        0.9075723245
 H         -2.7707369344       -0.7173559819        1.2428660268
 H         -1.5176413810        0.3205464595        1.4263687461
 O         -0.1678429501        1.5739104275       -0.4750768013
 H          0.3717781998        0.7658999921       -0.5867010105
 O          4.0441912551       -1.7663280484       -1.4532175390
 H          3.6525017481       -0.9422399260       -1.7831276402
 H          3.6225627250       -2.5139213470       -1.9118633388
 O          1.0830879580       -0.6013164032       -1.5021933580
 H          0.7573089205       -1.4428078991       -1.8873737196
 H          1.1319901354        0.0108818356       -2.2539879330
 O         -1.6072826023       -4.1513861677       -1.5893620376
 H         -1.3904851294       -4.1393798393       -0.6448974146
 H         -2.4623993824       -3.7112341419       -1.6848845259
 O         -0.0765136443        3.3260135068        1.6276463436
 H         -0.9502699486        3.7722174949        1.5172415344
 H         -0.0797182836        2.6332089546        0.9399873768
 O          3.4232020013        0.9519725129       -1.3905327205
 H          2.9274648556        1.7553417577       -1.6686749325
 H          3.0201986781        0.7507240180       -0.5206742581
 O          5.9265542842       -0.9246312719        0.3251778848
 H          6.1722011855       -0.0476331967       -0.0175048581
 H          5.3312527213       -1.2973648547       -0.3483533815
 O         -0.4083750542       -1.0643411307       -4.6602193663
 H          0.0660613456       -0.2551524383       -4.4215229138
 H         -0.0652226187       -1.7666067334       -4.0757419880
 O          5.8711186604        1.6059915014       -0.7185978228
 H          6.2967307707        2.0420858324       -1.4557633918
 H          4.9427853301        1.3875346323       -1.0111487832
 O          4.5623264817        0.2824801278        2.3864248738
 H          5.0678887187       -0.1868901526        1.6957078345
 H          4.8633723321        1.2195386602        2.3390711053
 O          2.7444437889       -4.0769286573       -2.2407306834
 H          2.4080567037       -4.3188607125       -1.3339105216
 H          3.1234791672       -4.8724967661       -2.6125813809
 O          0.3543809230       -2.8222629827       -2.7554472873
 H          1.1549046136       -3.3689775156       -2.7224973337
 H         -0.3790473633       -3.3601855965       -2.3700732359
 O         -2.9183944911       -1.0571421323       -3.9294487773
 H         -3.3857435598       -1.4206707652       -4.6827312851
 H         -1.9561109374       -1.0511709338       -4.1919153638
 O         -3.8582977674       -2.4575552050       -1.7485263562
 H         -4.6658245662       -1.9558542199       -1.5391332429
 H         -3.4522040273       -1.9746797684       -2.4915427773
 O         -5.4956580112       -1.0680542491        1.6340860432
 H         -5.2216746630       -0.3440841913        2.2169498200
 H         -4.7637283007       -1.7036692437        1.6148882712
 O          2.3388039200       -1.8866694053        0.6164575547
 H          3.1130324545       -1.8530545221        0.0193251393
 H          1.6855246196       -1.3162258506        0.1865972929
 O          2.3309928248        0.8527975961        1.0718231345
 H          3.0791387253        0.5675244573        1.6422739839
 H          1.5180632424        0.5149419132        1.4978701665
 O          2.5924354675        3.5026395257        0.8906528713
 H          2.4823307658        2.5259201506        0.9670266872
 H          1.7737888068        3.8548115506        1.2644374000
 O          1.8579727313       -4.4628520514        0.2015775268
 H          1.9248209324       -3.4977835092        0.3903951136
 H          2.5516872499       -4.8533438063        0.7720799441
 O         -3.4363164060        1.6340555180       -3.7780628247
 H         -3.2649334572        0.6774650579       -3.8352085628
 H         -4.0221327268        1.7491967665       -3.0071850683
 O         -0.2336975475        2.1236680944        3.9245783900
 H          0.3635864865        2.5309639284        4.5516001227
 H         -0.1258354138        2.6222477150        3.0618411033
 O         -2.9045173820        2.8260955260        3.8348994682
 H         -2.0036435518        2.4822423266        3.9631476335
 H         -2.8429765693        3.4668556806        3.1164167427
 O         -2.2047351735        4.5928374915       -1.4968124744
 H         -1.7154253879        4.0982217458       -2.1689556992
 H         -3.1248081136        4.6309349594       -1.8146567423
 O         -4.8842510490        4.4665419699       -2.1384283523
 H         -5.0544274683        3.5120461746       -2.0900375798
 H         -5.3860619606        4.8659876737       -1.4264065626
 O         -4.8829801817        1.1008749139        3.3466404093
 H         -5.5008268553        1.1878089310        4.0722243647
 H         -4.1088440902        1.6684741913        3.5759477561
 O          1.8735716745        3.0862528159       -1.7010357035
 H          1.0023475581        2.7385660034       -1.4453387174
 H          2.2121900986        3.4998139822       -0.8840976798
 O         -2.5263039952        4.2274305526        1.1921014871
 H         -2.3643578512        4.5458041595        0.2842738008
 H         -3.1521321143        3.4804791345        1.0699068843
 O         -4.1294644236        2.0942485902        0.8833087485
 H         -3.4325681685        1.3558921089        0.9204798522
 H         -4.7144335195        1.9033176062        1.6259694579
 O          4.6867499446       -1.7811794550        4.1551180054
 H          5.2713672507       -2.3205447427        3.6009966659
 H          4.6494963931       -0.9140661414        3.7125601973
 O         -5.0745286500        1.7567811407       -1.5854849847
 H         -5.4619434529        0.8693072425       -1.5186248869
 H         -4.7100030038        1.9310188815       -0.6886778868
 O          2.4807453677       -2.8375614415        3.1812570265
 H          2.4903149416       -2.3831212928        2.3194505961
 H          3.2189440477       -2.4325622676        3.6989380849
 O          3.8424223942       -4.8771384244        1.9664148900
 H          3.3264408130       -4.3405501466        2.5958918622
 H          4.6761095895       -4.3979544690        1.8708935184
 O          6.0767787274       -3.0611208216        2.0485681897
 H          6.0689956412       -2.3106259165        1.4285715858
 H          6.9846753866       -3.3592897010        2.1069493651
 O          5.1767973873        2.7853797218        1.7251265219
 H          4.3422892591        3.2354942139        1.5176554314
 H          5.5492753790        2.5182604460        0.8698439315
 O         -0.7526107208       -3.9488594287        1.0791885576
 H          0.0978965948       -4.3253137514        0.7979565358
 H         -0.5551932536       -3.4433582309        1.8859953086
 O         -3.3000843887       -2.6327896350        0.9925696542
 H         -3.4733986707       -2.6360073051        0.0357743949
 H         -2.5310468537       -3.1991849028        1.1280291738
 O          0.1602239512       -0.0555989027        2.3463265377
 H          0.0286580684       -0.9415816663        2.7195710650
 H          0.0230603106        0.5849895580        3.0640695590
 O         -1.2296724869        3.0423651805       -3.7166208797
 H         -2.0859418229        2.5354600504       -3.7565261961
 H         -1.2454207879        3.6458130022       -4.4601685798
 O          0.8321792236        1.2493287240       -3.6322815514
 H          0.0781097358        1.8754939260       -3.6640210764
 H          1.6024659178        1.8113431818       -3.5129410274
 O         -5.9283650363       -0.8044201621       -0.9534750344
 H         -6.8340455935       -1.0895732486       -1.0759613735
 H         -5.7650071128       -0.8383411900        0.0262593255
 O         -0.1127950460       -2.5768013107        3.4165315731
 H          0.8640941463       -2.7368298760        3.4392829430
 H         -0.4681255939       -2.8788118404        4.2518981424
