  99
       -167.97198847
 O         -5.5226487702       -0.8847813204        2.4120978399
 H         -6.3201639089       -1.2878843352        2.0682000929
 H         -5.1128348825       -0.3933235638        1.6788410153
 O          0.0709909849       -1.2785885896        1.3043006549
 H         -0.5002165515       -1.3317122341        2.0999232004
 H         -0.2552219851       -0.4581275790        0.8322980447
 O          4.7537991935        1.5148703163        0.5789469421
 H          4.8396722277        0.8411493301        1.2738582225
 H          4.9994993028        1.0720916127       -0.2468916015
 O         -1.5878650135        3.0183667935        2.3374246063
 H         -0.6944743677        2.7814703469        2.6397872188
 H         -2.1996936982        2.4941713267        2.8699247331
 O          3.9382898754       -1.9475774513       -0.0271255808
 H          3.5136210335       -2.7363392369        0.4017302518
 H          4.3249790265       -1.4744917165        0.7333357904
 O          1.8883600182       -0.3089228938       -0.8103502825
 H          2.5570789618       -0.9328405543       -0.4669218769
 H          1.8071624273        0.4129863499       -0.1560856382
 O          2.1369710188        1.9374265419        0.6369033130
 H          2.0094024034        2.6106605063       -0.0514575324
 H          3.1178072535        1.8342254603        0.6947421777
 O         -3.9522139274        1.9318163159       -3.4218937150
 H         -4.1328773911        2.2792425186       -2.5305460170
 H         -3.0912641278        2.2810636722       -3.6825453974
 O          1.1981977069        0.4428073134       -4.6631659911
 H          1.9523762400        0.8053718660       -4.1761514836
 H          0.9714160889       -0.3815966578       -4.1949235073
 O         -2.1679841028        4.1045672070       -0.1388463110
 H         -1.4412781989        3.7652033483       -0.6984217470
 H         -1.9527279257        3.8321771376        0.7699920309
 O          2.6526373523       -3.7801193656        1.3526556680
 H          1.8008406107       -3.9420418084        0.9261788420
 H          2.4729387089       -3.1692549334        2.0869210602
 O         -1.4742663151       -1.0869594564        3.4859454323
 H         -2.1394521250       -1.8098376414        3.4357335616
 H         -2.0002929344       -0.2678152505        3.4393965871
 O          2.2455061119       -1.4488439770        2.7911259444
 H          1.5319479925       -1.3150067249        2.1227127231
 H          1.8656798727       -1.0392722777        3.6034621666
 O         -3.4908702812       -2.7397431792        2.9649498713
 H         -4.2557132139       -2.1498777057        2.8698743187
 H         -3.2931361436       -3.0749942741        2.0760357661
 O         -3.0809388963       -0.5997644603       -3.5981200949
 H         -3.2272796713       -0.8632862096       -4.5077769063
 H         -3.5494908522        0.2584008878       -3.4884868184
 O          2.4769453552        3.4546874118       -1.6521745397
 H          2.7515849268        2.6342705327       -2.1270388041
 H          3.1819046855        4.0915229179       -1.7655989328
 O          2.3129069899       -3.4423712884       -2.0670678601
 H          3.0917967253       -3.0803570716       -1.6375791063
 H          1.6797935000       -3.6373572189       -1.3510305024
 O          0.9638113655        2.2274274461        3.0261810302
 H          1.5088332786        2.8984370975        3.4388933419
 H          1.3550080612        2.0599799851        2.1387030900
 O          3.1049833513        1.0948086352       -2.7148681826
 H          4.0124447039        0.7862650546       -2.5933175120
 H          2.5796397246        0.5591472219       -2.0712469421
 O          0.8623188873       -0.1089111237        4.5935192441
 H          0.0071350816       -0.5297136080        4.4052779242
 H          0.8405753945        0.7386394386        4.1203480032
 O          5.3015555880       -0.2020422187       -1.6246021073
 H          6.1439806589       -0.5521887890       -1.9140746312
 H          4.8264187460       -0.9336579427       -1.1887127876
 O         -1.0815196221        1.5556500112       -3.8248849243
 H         -0.2444704858        1.2806444871       -4.2615305113
 H         -1.5480428858        0.7257483747       -3.6533162407
 O          4.6464755417       -0.6388874872        2.2547419163
 H          5.2034872766       -0.9630294591        2.9618540296
 H          3.7076838244       -0.8695262396        2.5128757187
 O         -1.7550402048       -2.6289623821       -2.1073438220
 H         -0.9096158846       -2.2723732660       -2.4558054318
 H         -2.4246622871       -2.1042862334       -2.5626062697
 O          0.2972903441       -3.4835159154       -0.1689244403
 H          0.2032033485       -2.6403621561        0.3377913138
 H         -0.3676755147       -3.4341059187       -0.8646917209
 O         -0.2427471185        2.9295374171       -1.6488229494
 H          0.6362975189        3.2909873242       -1.8126584070
 H         -0.5303434094        2.4838665331       -2.4724685460
 O          0.6021876135       -1.5374836701       -2.8505639970
 H          0.8577671348       -1.0032815782       -2.0766170882
 H          1.2317865538       -2.2872713829       -2.8301904259
 O         -2.6221802197       -3.4919984577        0.4271733715
 H         -2.4868381216       -3.1807792383       -0.4823563295
 H         -1.8279954968       -3.9852755032        0.6525988436
 O         -4.3221808811        2.8638218956       -0.8343970407
 H         -5.0537955672        3.4643457943       -0.6912935268
 H         -3.4897537176        3.3746413741       -0.5788848791
 O         -3.2614223708        0.9762640709        3.2228265342
 H         -3.4793005335        0.8703577595        2.2742997697
 H         -4.0250943880        0.6396343734        3.6974011571
 O         -3.7646186145        0.6067330878        0.6359890189
 H         -2.8528060884        0.4731550010        0.3326425502
 H         -4.1037560170        1.3529372608        0.1091737979
 O         -1.0147089525        1.0525469159        0.3205974512
 H         -1.2020092607        1.6748412577        1.0438382427
 H         -0.6692133819        1.5974776311       -0.4072117849
 O         -4.9640425450       -1.7293630670       -0.8208147310
 H         -4.3696149773       -2.3425337442       -0.3799449344
 H         -4.4493761775       -1.2795006998       -1.4953103735
