  309
       -524.43927660
 O          5.1064379846        2.5360279066        0.2710460570
 H          5.7233021838        1.9229654255       -0.1716732748
 H          5.6514210532        3.1578304977        0.7993879311
 O          7.1122704041        1.7728560087        2.4410366453
 H          7.6854277147        2.5482839328        2.3713531657
 H          6.8869892221        1.6696304636        3.4003649166
 O          3.4968214902       -5.4116291222        2.7114278800
 H          2.8490805462       -5.1522596233        3.3776006038
 H          3.6126112112       -4.6284384153        2.1325923708
 O         -0.3826302987        2.4966567821       -6.1716958127
 H          0.3288449077        2.9830554325       -5.7073659089
 H          0.0591046162        1.9415985955       -6.8178690249
 O          5.7219694318       -1.1499261470        5.2585261577
 H          6.1938609757       -1.9834712051        5.1989354637
 H          4.8164371493       -1.3400694619        4.9818183174
 O         -6.2292631600        2.7723714591        3.5029519544
 H         -6.2344285512        3.6765329667        3.8190397692
 H         -5.5735344129        2.7497605924        2.7626596914
 O          6.7038045498        0.8555079786       -0.9952571321
 H          7.3303461394        0.4292210203       -0.3859919870
 H          6.9621967898        0.6403774261       -1.9000715431
 O          0.9117608270        3.8651098947        3.7507150700
 H          1.6031180432        4.3237413669        3.2517000802
 H          0.8889532904        2.9612147345        3.3792239008
 O         -0.0888462625       -1.7891848017        2.2967314322
 H          0.8412154858       -1.5496752114        2.1364399868
 H         -0.1660131661       -2.7330481110        2.1279143351
 O         10.1662029901        1.9205745339        0.4814126471
 H         11.0606339086        1.6732924543        0.7186620356
 H          9.6118690446        1.1308801522        0.6091004109
 O          0.1701504688        6.1079970321       -1.4133194695
 H         -0.2343834226        6.9105847189       -1.7422769449
 H          0.3782845782        6.2825511589       -0.4642447135
 O         -1.5231586547        2.2014468306        2.2806752967
 H         -1.9288740246        2.3605213112        3.1488377599
 H         -0.6471175691        1.8104067945        2.4748207663
 O         -4.6513821633        4.8460081352       -3.2398392084
 H         -4.0302282567        4.6865213726       -3.9638055234
 H         -5.3284457267        4.1489998990       -3.3012937998
 O         -1.0123171097        1.2683748399       -3.8333791687
 H         -0.8679052212        1.4858269083       -4.7693841161
 H         -0.8586708868        2.0950914314       -3.3575140110
 O          0.0179375374       -4.6439617563        1.7380052197
 H          0.6538729706       -5.3398038437        1.4166242445
 H         -0.8270105563       -5.0922443855        1.8747110350
 O          3.4138070397        2.1938277981       -6.1376522720
 H          2.8168263880        1.5184734496       -6.4987474267
 H          2.8365929177        2.7810231738       -5.6092106678
 O         -3.3384026277       -0.7428010243       -5.0695316481
 H         -3.4427897043        0.0941271386       -4.5767867152
 H         -4.2066017110       -0.9097857720       -5.4476178219
 O         -5.2905264072       -4.4316057057        1.8363737717
 H         -5.0778693474       -3.7132382877        1.2000832359
 H         -6.2478696063       -4.5340111453        1.7554121743
 O         -2.5331901661       -1.9613697196        0.7883698450
 H         -2.8773684925       -2.6029928586        0.1448344258
 H         -2.4165779883       -2.4210064940        1.6412223285
 O         -0.2397545402       -3.7289799755       -0.8826689847
 H         -0.0781178927       -4.1657411832       -0.0357174617
 H          0.2932471857       -4.1699842908       -1.5725290848
 O          0.8070405356        6.6614580664        1.1214726040
 H          0.1124474884        6.6497185201        1.7952942329
 H          1.5609513237        6.2008707665        1.5202996040
 O         -5.8136079564       -0.7557275150        3.3614148567
 H         -5.1305764291       -0.4506935102        2.7126857768
 H         -5.6797874061       -0.1760217258        4.1297869772
 O          4.1853285467       -0.6427946733       -0.4304261474
 H          4.2698496903        0.0618457794       -1.0984456568
 H          4.8978676062       -1.2880450903       -0.6122904753
 O          1.1443526125       -0.6142342699       -3.5266684160
 H          0.4538507276       -0.7050165023       -4.2101152588
 H          1.1181015178        0.3136541290       -3.2413757134
 O         -0.0371688157       -6.8139425795       -1.5781530273
 H         -0.9487116242       -6.6786797732       -1.2702182467
 H          0.4944872082       -7.0006966085       -0.7989020437
 O         -6.4763635073        3.1931352674       -0.2757109285
 H         -6.4421397065        4.1584923146       -0.4147427063
 H         -5.6887902507        2.9898745348        0.2601908677
 O         -1.6411971374       -1.2014707151       -2.7938700766
 H         -2.5978655471       -1.2227280154       -2.5782145135
 H         -1.4882038986       -0.3780716231       -3.2893720660
 O          5.1157748944       -4.4276473731       -2.4158242598
 H          5.9050069911       -4.7123192103       -1.9550508709
 H          5.1557446395       -3.4421169245       -2.4464498600
 O         -2.6966534439       -5.5590307342        1.8772934658
 H         -3.6424280442       -5.3612142404        1.9554829089
 H         -2.6063439922       -5.9260636524        0.9772653114
 O         -4.4464053094        2.6617099292        1.5168330073
 H         -4.1349775541        1.7393557927        1.6231110864
 H         -3.8818974826        3.2368890670        2.0694106922
 O          4.8052822556        3.9594419110        3.7350927865
 H          4.3146837085        3.1186251015        3.6884736416
 H          5.2974675474        3.9286866804        4.5574938458
 O         -3.7854290504        0.0817341672        1.9432266648
 H         -3.0923542319        0.0397331653        2.6421804651
 H         -3.4752732023       -0.5788097355        1.2911156991
 O         -3.3711195037        4.1909297339        3.4520905496
 H         -3.1330040177        3.6394540674        4.2077447337
 H         -2.6477553238        4.8423805274        3.3586380075
 O         -6.1010713554        0.1115823005        0.2092683443
 H         -6.6228578398        0.6388110055        0.8473718852
 H         -5.5190822419        0.7375120625       -0.2562326566
 O          2.8325183915        5.0350920913        2.1168730310
 H          3.5569927509        4.9356930691        2.7483492438
 H          3.2194594236        4.8816635263        1.2380313501
 O          1.7625180312       -6.3211133150        0.7712696354
 H          2.4492477736       -6.3086024804        1.4634487792
 H          2.1485087177       -5.8282629212        0.0213303504
 O          8.2449881047       -1.7396364878       -1.7203646089
 H          8.0724030824       -1.1413410072       -2.4588142016
 H          8.7805375798       -1.2634953670       -1.0810669150
 O          3.6720148428        1.4478383878        3.8643961353
 H          4.0221225585        0.8520478632        3.1648420491
 H          3.0204118246        0.9577781875        4.3690742373
 O         -4.2245756910       -1.0956096633       -2.0852697510
 H         -4.4159873291       -1.7375443086       -1.3731377278
 H         -4.3170166456       -0.2158577374       -1.6878532033
 O         -0.6044026244       -2.5081279422        5.1760782536
 H         -1.2046937657       -2.3494039471        5.9086216874
 H         -1.1762385583       -2.7588689947        4.4174552116
 O          3.8936101836        4.7814613137       -0.4453588556
 H          4.2843638379        3.8879081460       -0.3138529826
 H          4.6119421375        5.3963682776       -0.2770120235
 O         -4.8867918539        1.0456352617        5.2059042808
 H         -4.0070856191        1.4553487950        5.2315686439
 H         -5.4575977842        1.7021422842        4.7713489992
 O          8.8672968996        3.8429789231        1.8785360570
 H          9.3500684122        3.2444847335        1.2688151842
 H          9.5266192968        4.3814615452        2.3172156684
 O         -3.5943589626       -3.3674622174       -3.8386802822
 H         -3.5548156290       -2.4577210995       -4.1738825122
 H         -4.5427536935       -3.6226432511       -3.8698123846
 O          1.5580347375        1.9245819709       -2.4794738416
 H          2.5129645968        1.7339871672       -2.3807919126
 H          1.3358115648        2.5554369637       -1.7744586876
 O          1.4184618775       -3.9861190074        4.0236681893
 H          0.7681410886       -3.6086206381        4.6354304313
 H          0.9171568011       -4.1943645829        3.2119260791
 O         -2.8408254171       -3.7188547796       -1.2927740553
 H         -1.8589413744       -3.6496365983       -1.2723494279
 H         -3.1243113930       -3.5628907588       -2.2199780841
 O         -5.1728303099       -2.4349863104        0.0477495620
 H         -5.5067366410       -1.5793617149        0.3680488176
 H         -5.9038933789       -2.8348749397       -0.4721159062
 O          2.6768432341        1.5656157768        0.9270083050
 H          3.6001507362        1.8438312005        0.8040625957
 H          2.1419997568        2.2509235226        0.4904764135
 O          2.8395843114       -4.6160151704       -1.0227408407
 H          2.3782786211       -3.8383127395       -1.3959337166
 H          3.6420616374       -4.7276231673       -1.5690512936
 O          1.2935846966        3.5770466389       -0.3013457686
 H          0.4631348505        3.9676747102        0.0354042520
 H          1.9216522718        4.2978164808       -0.4069172037
 O         -8.0280018766       -3.8073268101        1.4064845891
 H         -8.0677451451       -2.8525566901        1.6148992011
 H         -8.7694022461       -4.2107638172        1.8577846584
 O         -1.1573054450        4.2445112129        0.6578259138
 H         -1.9426137191        4.3416468431        0.0994657747
 H         -1.3315994501        3.4740045113        1.2460109959
 O          8.3489211607       -0.0831991293        0.9853269077
 H          7.9239604697        0.5899799406        1.5686933829
 H          8.1198698717       -0.9216931173        1.4155506393
 O         -2.6350493124       -6.2601614982       -0.7397864604
 H         -2.8005682569       -5.3080998201       -0.9890735784
 H         -3.3232291263       -6.7802165885       -1.1534163128
 O         -3.9054355072        1.6294544954       -3.8107436742
 H         -3.3724321538        2.3562418696       -4.2003629230
 H         -4.8325845159        1.9218604526       -3.8178292413
 O         -5.9959597117       -0.9939216373       -4.1893074777
 H         -5.3776167806       -0.9877486434       -3.4335840852
 H         -6.7148893777       -0.3870464316       -3.9659942606
 O          5.4723015843       -3.6902659803        3.8243327174
 H          5.1613451634       -4.5563411674        3.5323753564
 H          4.6712738488       -3.1449078131        3.9188188049
 O          1.2030366784       -0.3859164904        4.8976984284
 H          0.4662392487       -1.0165731505        4.9953574123
 H          1.9880397294       -0.9547834217        4.7809060768
 O          3.7604908045       -3.3155409371        1.0283801060
 H          4.6392834467       -3.0897565278        0.6937368109
 H          3.3401537083       -3.8077977288        0.2786135853
 O         -6.2355827134       -3.6831515975       -3.8085869689
 H         -6.6325526781       -3.7426715941       -2.9302186507
 H         -6.3390899097       -2.7541672664       -4.0872073402
 O         -0.9549378416       -3.3840517019       -4.2650901020
 H         -1.8441729773       -3.7521918703       -4.3630785014
 H         -1.0762987454       -2.6484034606       -3.6286339705
 O          2.0941547702       -2.0852525280       -1.4229658376
 H          2.8671955951       -1.5755703001       -1.1133967151
 H          1.7824546223       -1.6692339294       -2.2413890842
 O         -1.0244931209        3.8037829053       -2.5247363096
 H         -1.8124093224        3.8374839878       -1.9460354638
 H         -0.4741628869        4.5476851195       -2.2415536469
 O         -0.6138185775       -1.0580132232       -5.6212360155
 H         -0.6040515093       -2.0161263578       -5.4551647499
 H         -1.5503577141       -0.8090968317       -5.5630691237
 O         -5.8232161271        5.7670490490       -0.8051236422
 H         -5.0092564381        5.9365723254       -0.3247684564
 H         -5.5949687994        5.7692031785       -1.7432926130
 O          0.8785529463        1.3200240132        2.8663844301
 H          0.9703891845        0.6154338252        3.5387464457
 H          1.6664062616        1.3230325147        2.2891114594
 O          6.8297740455       -1.9404965358        2.2883948223
 H          6.1562544210       -1.2341295948        2.3829936692
 H          6.5128468605       -2.6667066019        2.8586527313
 O          5.0250530495        0.0601582545        2.0192171523
 H          5.6761472623        0.7728143765        1.9419585417
 H          4.7128013348       -0.1445435370        1.1092571728
 O         -6.2834746836        2.6621144829       -2.9733552300
 H         -7.0128228450        2.0727390978       -3.2113710469
 H         -6.3348723445        2.7546476715       -1.9996176200
 O          4.9145890731        0.6553022210       -4.6990938688
 H          4.4262908254       -0.1688497605       -4.8746585333
 H          4.4627953753        1.3303117391       -5.2822699675
 O          1.5935476189        3.4936386513       -4.6248647630
 H          1.4947726156        2.8558950078       -3.8821579228
 H          1.8939240340        4.3103793163       -4.1918684207
 O         -3.2697212667       -1.4315584158        5.7248473396
 H         -3.8469069570       -2.1469333998        5.4220953480
 H         -3.8499924270       -0.6828814951        5.9032438519
 O          6.2104720825        4.6211179468        1.4638195592
 H          5.8151582468        4.4890303689        2.3433259328
 H          7.1668909552        4.5241826225        1.5665044509
 O          6.1180779983       -2.5542183871       -0.1949639008
 H          6.4972784069       -2.3756235943        0.6932193345
 H          6.8344041600       -2.3847140540       -0.8275093222
 O         -1.0854350583        5.5898957115        2.9713653453
 H         -1.1308269887        5.2135942918        2.0698070865
 H         -0.4214776740        5.0447154727        3.4332916071
 O          4.1466203979        1.3552302759       -2.2901505465
 H          4.4388511039        1.0710506811       -3.1928679109
 H          4.7500855193        2.0409155292       -2.0017552837
 O         -2.5301286496        3.7423642714       -4.7614281984
 H         -1.9912358189        3.4579674139       -5.5102178655
 H         -1.8958882926        3.8743652997       -4.0249040969
 O          0.9593110720       -4.7728317081       -3.0471128842
 H          0.6749358561       -5.6614664230       -2.7695525108
 H          0.2574555033       -4.3902180364       -3.6113511558
 O         -2.2903112732        2.0363531773        4.9118497794
 H         -1.5005301740        2.2326175773        5.4604757911
 H         -2.1045192181        1.1427262401        4.5618875603
 O         -8.1108048089       -1.1514423363        1.9866661479
 H         -8.4136088894       -0.2415590293        1.8923467024
 H         -7.3088265836       -1.0726464494        2.5393363636
 O          3.1738743945       -4.1395888754       -4.4870181219
 H          3.9232309961       -4.4485657377       -3.9652369013
 H          2.3750711547       -4.4156948907       -3.9968965812
 O         -7.3366093710       -3.3267023112       -1.2187530395
 H         -7.7168109606       -3.7382112826       -0.4277013734
 H         -7.7662352620       -2.4533932782       -1.3012792456
 O         -3.2872431800        4.0875094492       -1.0601089532
 H         -3.7366251218        3.2427332630       -0.8703670052
 H         -3.7774405868        4.4699658035       -1.8191989633
 O         -1.8675018134       -0.3085586946        3.7044208742
 H         -1.2140668571       -0.8548091267        3.2232263792
 H         -2.2747853768       -0.8664712677        4.3948188724
 O          7.3218193598        0.1496136200       -3.6608385045
 H          8.0067749277        0.5122417283       -4.2234817393
 H          6.4690799014        0.3637204450       -4.1058471423
 O          3.2308154911       -2.0139894576        4.0934981523
 H          2.6216830699       -2.7853613624        4.1097912327
 H          3.1029805386       -1.6220158280        3.2014884015
 O          5.1318433302       -1.7856074960       -2.7755579898
 H          5.9667330790       -1.4999099000       -3.1484327851
 H          4.4557350411       -1.6906787389       -3.4792094589
 O         -4.2397697003        1.5257665599       -1.1827321183
 H         -4.0277044969        1.6006212246       -2.1393094162
 H         -3.4103990755        1.2790200143       -0.7093517253
 O         -8.1160574029        0.6268682510       -3.3455138589
 H         -8.9394359794        0.5654699943       -3.8291889861
 H         -8.2359762543        0.1392516617       -2.5029842171
 O         -2.3366942880       -3.2073238159        3.2003091851
 H         -3.2320109308       -3.1008496963        3.5987290440
 H         -2.3318811979       -4.1128965921        2.8520624159
 O          0.1617657676        2.2188121529        5.9317781357
 H          0.5622389058        2.9026541316        5.3761877592
 H          0.5831118865        1.3798584989        5.7085034697
 O          2.4318303226       -1.1380839391        1.7195461925
 H          2.6516556193       -0.3365878705        1.2241266367
 H          2.8977100856       -1.8886911701        1.2895839301
 O         -7.8346317603        1.6558269449        1.5593772558
 H         -7.6542433345        2.3308842071        0.8820910647
 H         -7.4650502133        2.0081391510        2.3861775540
 O          1.6954184451        0.0809465759       -6.6177659855
 H          0.8184989639       -0.2726671017       -6.3992745453
 H          2.3193195781       -0.5965745881       -6.3311732798
 O          6.2234383436        1.4951725114        4.9039743695
 H          6.3423413985        0.5738998031        5.1839690297
 H          5.2732935300        1.5396888884        4.6960641018
 O         -8.2223496175       -0.7647033020       -1.0483180092
 H         -7.3866038655       -0.4413074609       -0.6124081300
 H         -8.8955168192       -0.7119409834       -0.3670885466
 O          2.4196730766        5.3553222157       -2.8227014175
 H          1.6284115341        5.6987425994       -2.3759596923
 H          3.0616975875        5.1759497941       -2.1252234822
 O          3.3155699772       -1.5312062715       -4.7570350419
 H          2.5089374474       -1.2009830040       -4.3011718142
 H          3.2247845988       -2.5155428166       -4.7958377875
 O         -4.8123468651       -3.0831115413        4.1148071360
 H         -5.2650939862       -2.2474976835        3.8542749184
 H         -5.0828728694       -3.7302115046        3.4348224886
 O         -1.9226966555        1.0343293082       -0.3630247452
 H         -1.7291073321        1.2473856939        0.5532350776
 H         -1.2420610711        0.3766896072       -0.6216516350
 O          0.1135547964       -0.5746590914       -0.1424743909
 H         -0.4402966255       -1.1195616262        0.4289536444
 H          0.6625234077       -1.1957012650       -0.6365585419
 O          4.7979780497        3.8206322792       -3.7693665546
 H          3.9966324718        4.3465801183       -3.6850347013
 H          4.7546086439        3.4066327465       -4.6335085980
