  99
       -167.98114897
 O          1.9204164126        1.7457939113       -0.1234333189
 H          2.0713093569        0.9015889276        0.3310769894
 H          2.5097727127        1.7542354520       -0.9127421656
 O          2.5189471125       -3.8831290941        0.4828592376
 H          2.9317863765       -3.4163322962       -0.2611128354
 H          1.6562294079       -3.4447851994        0.6017414037
 O          5.6981497739        1.1765192288       -1.0300490154
 H          5.9549078597        0.2502955610       -1.1482410272
 H          5.4779034244        1.2519623348       -0.0780777459
 O         -6.1772304858        1.2401048031       -1.3469816540
 H         -5.6863563399        1.0383192648       -2.1703217352
 H         -5.5367448633        1.6765042730       -0.7673524295
 O          1.6961571183        3.8204107780       -2.8443118930
 H          2.3632804754        3.1269251460       -2.6812097974
 H          2.1865898330        4.6052065369       -3.0900519720
 O          2.7074836935       -0.6178712234        0.9113180105
 H          2.9696147438       -1.1184645625        0.1054523444
 H          2.8377132312       -1.2336999968        1.6472914102
 O          4.8087689977        1.0163505069        1.5244320052
 H          4.0318871030        0.4597383640        1.3129730116
 H          4.4278334281        1.8722438382        1.8056299505
 O          6.1719816490       -1.5794481880       -0.8279039281
 H          6.1593359600       -1.5513742671        0.1711582412
 H          6.9169884595       -2.1282576275       -1.0707839273
 O          3.5389471152       -1.9941514303       -1.2350869734
 H          4.5081423974       -1.8866404010       -1.1747652978
 H          3.2606916968       -1.5484704492       -2.0545094480
 O          3.1516925578        3.0970576375        1.9390578088
 H          2.5081432268        2.8012272354        2.5941887907
 H          2.7472083415        2.8514414714        1.0885734049
 O         -3.5302180147       -1.7665483040       -2.7977837894
 H         -2.7053783031       -2.0109689122       -2.3635764003
 H         -4.2344930160       -2.2915003485       -2.3522406445
 O          0.8535334906        1.7916133818        2.9187790843
 H          0.6002432382        1.3581871396        3.7339522972
 H          0.5299060014        1.2161965994        2.1890281618
 O         -0.7016223733        3.8802275185        2.0590932842
 H         -0.4868860931        3.9977945476        1.1222802650
 H         -0.0315207568        3.2654300347        2.4110777576
 O         -6.8004300531       -1.0090742661       -0.1601281898
 H         -7.7431608234       -1.0302370870        0.0011769390
 H         -6.6189693089       -0.1634304686       -0.6587617020
 O         -4.4175612761       -0.5577321853        1.0833155262
 H         -4.3035519478        0.3499485298        0.7187663164
 H         -5.3296391445       -0.8037902322        0.8590734112
 O          0.2779894030       -2.3435785804        0.8028891092
 H          0.3500641928       -1.3739850261        0.8869579116
 H         -0.3108866246       -2.6119581182        1.5518016269
 O         -4.0432332078        1.9772566804        0.3351054632
 H         -3.2225220166        1.9444381522       -0.1909402883
 H         -3.7754187743        2.3361746159        1.2002734730
 O          2.5983570832       -0.5779204400       -3.3572219075
 H          2.4584121863       -0.8301166929       -4.2692759334
 H          1.6875429843       -0.3997071145       -2.9503294403
 O          6.0162870763       -1.4419477281        1.7824367322
 H          5.2281466213       -1.9247370454        2.0877883346
 H          5.8018966643       -0.5007113676        1.8887406845
 O         -0.4233689848        0.2600216016        1.1161661374
 H         -0.8364483434        0.7419980935        0.3772133276
 H         -1.1551555839        0.0860613428        1.7506748671
 O         -5.3293387108       -3.0810374325       -1.3066483547
 H         -5.9368608524       -2.4098036617       -0.9542788815
 H         -4.7322771666       -3.3036658000       -0.5734978827
 O          3.6279780539       -2.6595180162        2.5209650869
 H          3.5275293943       -3.1522047351        3.3347217288
 H          3.2876307807       -3.2443512227        1.7901501530
 O         -2.4402174370       -0.0181096291        2.8546309531
 H         -2.5955807164        0.9316289442        2.9975029672
 H         -3.2194554654       -0.3166343817        2.3511220446
 O         -1.5492254178       -2.7664412304        2.6591086905
 H         -2.2567400470       -3.0093964698        2.0287292182
 H         -1.7993945010       -1.9051164380        3.0144135369
 O         -1.1882127768       -2.6372290009       -1.3359153230
 H         -0.5870859194       -2.5325315355       -0.5449877965
 H         -0.9803469867       -3.4936537353       -1.7117128446
 O          3.4660080889        1.7879630764       -2.2800232149
 H          4.3610934926        1.6502606136       -1.8768135880
 H          3.2688519916        0.9718063889       -2.7701151850
 O         -4.7576814922        0.5076846801       -3.5374062169
 H         -5.3078908389        0.2593198025       -4.2809467001
 H         -4.2741156028       -0.3050856107       -3.2798801067
 O          0.1316631791        3.6352289049       -0.6084102899
 H          0.7808672776        2.9711157161       -0.2949096418
 H          0.5241741997        3.9460519049       -1.4427351331
 O         -2.9304305045        2.6962808373        2.7261788099
 H         -3.3555571605        3.2715754729        3.3619320258
 H         -2.0963245569        3.1662348984        2.4448153705
 O         -3.2463890353       -2.9198651406        0.5336431196
 H         -3.6285951992       -2.0348192041        0.7017191925
 H         -2.5845229395       -2.8006066233       -0.1682519419
 O          0.3816365346       -0.1464906089       -1.9950639296
 H          0.5951126643        0.4101443212       -1.2309921056
 H         -0.1929284637       -0.8643461234       -1.6977284853
 O         -1.6427889051        1.7200209933       -0.8547072482
 H         -1.1049909203        2.5376875974       -0.7375596564
 H         -1.6841102235        1.6304543868       -1.8264069091
 O         -1.2256611695        1.5251073581       -3.5280603119
 H         -1.8685213951        1.0002359322       -4.0074721368
 H         -0.4858679845        0.9520584282       -3.2820019563
