  147
       -244.15643194
 H          1.4385655922       -2.3187764559       -0.4239263206
 C          1.8226596633       -1.3663004606       -0.0538409538
 H          2.7780960655       -1.5389214619        0.4467685162
 C          0.8176063213       -0.7765955583        0.9258748911
 H          0.6561669498       -1.4985861519        1.7208524262
 H         -0.1211275892       -0.5796046458        0.4119027909
 O          2.0096029194       -0.5484704031       -1.1956322325
 H          2.4932357617        0.2692539807       -0.9276007246
 N          1.3014753730        0.4853034457        1.5162804823
 H          1.2802670256        1.2812439767        0.8172736017
 H          2.2660089833        0.3405328935        1.8907431703
 H          0.6959546794        0.7234183159        2.3362044540
 O          3.6336226296       -0.2144808713        2.7260540141
 H          4.1606939624       -0.8892804957        2.2506552241
 H          4.2590481027        0.4982805096        2.9397154573
 O          3.6416569330       -4.2114641467       -2.0266616381
 H          3.9929988381       -4.8047048270       -2.6909180831
 H          3.8303454934       -3.2969932656       -2.3302214827
 O          3.3153096224       -0.0891954571       -4.7321032141
 H          2.8218190338        0.6088623524       -4.2768983218
 H          2.6524911074       -0.5720369764       -5.2365392120
 O         -6.1204530984       -1.6935544933       -0.2814292039
 H         -5.6961212203       -2.5706686031       -0.3047598939
 H         -6.1251771125       -1.4314314296        0.6587721860
 O          1.6903227314       -1.2362323670        4.4668989435
 H          1.2860822041       -1.9972920727        4.0170476100
 H          2.4847152880       -0.9977005330        3.9647468247
 O          5.5451879145        1.7300998048        2.9345929293
 H          6.0758047379        1.9386011825        3.7041682170
 H          6.1604753954        1.3781602127        2.2535382679
 O         -2.3786288618       -0.0872880967       -4.6499617001
 H         -2.2824443469       -0.8176117865       -4.0039800346
 H         -3.3132065186        0.1464311084       -4.6415656412
 O         -3.6144194435        3.1662077895       -2.0897908513
 H         -3.7076303577        4.1042130587       -2.2611570102
 H         -4.3485287242        2.9328634846       -1.4444306666
 O          1.4443337802        1.5738779365       -3.3417496281
 H          0.6023096559        2.0356978205       -3.4475733956
 H          2.0484966512        2.2101948275       -2.9300396021
 O         -3.1884546034        2.6849037572        3.7768828500
 H         -3.4917681486        3.2182777934        4.5120239007
 H         -2.8951223569        1.8220081565        4.1453218641
 O         -1.3130660062        2.0472686427       -3.4265242848
 H         -1.6891055767        1.3436285288       -4.0009569381
 H         -2.0638711702        2.5379130031       -3.0761965619
 O         -2.4926649207        0.0893741636        0.7325976532
 H         -2.9658162353       -0.1714468710       -0.0848931294
 H         -2.2374741575       -0.7502800885        1.1669384576
 O          0.9824159955        5.0347944699        0.9898184859
 H          0.0508047579        4.9395923827        1.2293454935
 H          1.4580825584        5.0312940451        1.8257525625
 O          0.0652652897        0.7487831582        3.8853138783
 H         -0.8529686336        0.5440566497        4.1258805263
 H          0.6260945333        0.0280903667        4.2616049481
 O          4.0183708081       -1.6183479223       -2.6591835157
 H          3.9467265996       -1.1581562497       -3.5229591398
 H          3.2190120863       -1.3197499510       -2.1789547404
 O         -1.9032895274       -2.3323437938        1.7010850601
 H         -1.8810960227       -2.8811751447        0.8892776349
 H         -1.1500258508       -2.6254207990        2.2482744565
 O         -2.5109881875        0.2557580465        4.6988593736
 H         -2.5140340085        0.0353180390        5.6311095389
 H         -2.9928834579       -0.4944137106        4.2418329628
 O         -4.5335852030       -3.9126459873       -0.2748523541
 H         -3.5687426767       -3.8817243471       -0.3805052111
 H         -4.7868789357       -4.8322209244       -0.3544905290
 O         -4.5157583057        1.4208688383        1.7577937009
 H         -3.7228125546        0.9312059860        1.4197169433
 H         -4.1756211925        1.9914295624        2.4667718618
 O         -1.7655209888       -3.6687169252       -0.6261256213
 H         -1.8398034566       -3.0304364845       -1.3702444391
 H         -0.9164289387       -4.1083315498       -0.7636231811
 O          3.4144157181        3.2700992654       -2.3822860022
 H          4.0990517597        3.5223712427       -3.0021650240
 H          3.3869094893        3.9706888825       -1.6803294523
 O          5.1684794696       -1.8876088379        1.2913485833
 H          6.0250090236       -2.0562842387        1.6865705628
 H          5.3416210237       -1.3784794600        0.4550304301
 O         -2.0536026198       -1.8095022366       -2.5476073822
 H         -1.3893059934       -1.1484934007       -2.2072912289
 H         -2.8917078441       -1.4952564302       -2.1470787039
 O          0.2494977804       -3.1974059590        3.1232767386
 H          0.6963954963       -3.7663657797        2.4286836491
 H         -0.0342008523       -3.8060358391        3.8072820629
 O         -4.7615002231        1.0021782272       -3.4550074085
 H         -4.4176768193        1.8634657125       -3.1689236896
 H         -5.6919648592        0.9681255859       -3.1966455575
 O         -5.9905089977       -0.7078556807        2.2629048122
 H         -5.5095723333        0.1421370655        2.1033963690
 H         -6.7795844143       -0.5001352866        2.7634826882
 O          3.4383584922        4.8940293986       -0.3166531883
 H          2.5839362013        5.3107089441       -0.1581850709
 H          3.5646186005        4.2822525493        0.4300753917
 O          3.6536674089        1.4029639782       -0.4595009003
 H          3.5430325292        1.9555530773        0.3409571877
 H          3.5864358756        2.0237144267       -1.2108246829
 O          1.0585489938        2.5034687393       -0.2228028190
 H          0.1106719404        2.4506854334       -0.4379755214
 H          1.1843306159        3.3841922489        0.1660297933
 O         -3.9955339107       -0.5118190887       -1.3680429389
 H         -4.7918547104       -0.9480229473       -0.9993256407
 H         -4.2821843311        0.0472100164       -2.1183224138
 O          3.9167999391       -4.3322997941        0.7511205385
 H          3.9074961180       -4.3751624419       -0.2175069220
 H          4.3482864708       -3.4975790380        0.9840817605
 O          0.9193574400       -4.1225216784       -1.4109133713
 H          0.5916476969       -3.8244258436       -2.2896928409
 H          1.8513778998       -4.3344659275       -1.5774681616
 O          1.3237596033       -4.6649789733        1.2981971450
 H          2.3029297773       -4.6286970536        1.2446471253
 H          1.0274083627       -4.5704498373        0.3827500004
 O         -0.5871298330        0.1327099658       -1.6413672541
 H         -0.7862174136        0.8931684136       -2.2170951353
 H          0.3730422535       -0.0132245744       -1.6955801258
 O          1.2001343162        3.1207088868        3.1918773263
 H          0.9846669497        2.3627221914        3.7523474420
 H          0.3406536951        3.3761104130        2.7985805315
 O         -3.7617193533       -1.7212204483        3.5716741719
 H         -3.1700941938       -2.0704361985        2.8797440192
 H         -4.5955589693       -1.4981241112        3.1283448112
 O         -1.6418137984        2.4562281316       -0.2260913697
 H         -1.8441734063        1.5403089613        0.0439984441
 H         -2.3017176991        2.7064368402       -0.8895642989
 O          3.4163157911        2.9826313969        1.6946591207
 H          2.6281121597        3.0273586767        2.2786584419
 H          4.1670304685        2.7136892888        2.2437322267
 O         -5.5376372456        2.4858176452       -0.5079378288
 H         -5.2113869642        2.1380025769        0.3456475866
 H         -6.0945151643        1.7927736178       -0.8980007390
 O          5.5651204758       -0.3963509844       -0.8359948793
 H          5.2143349937       -0.9045389799       -1.5986420460
 H          4.9064384905        0.3209946547       -0.7015646367
 O          0.5014321043       -0.6949562737       -4.7272513857
 H         -0.3686587331       -0.4659027387       -5.0686832556
 H          0.7661773010        0.0283643870       -4.1410414319
 O          7.2026496789        0.6828496261        1.0861333988
 H          7.9536563940        1.1693650505        0.7444581074
 H          6.7486504870        0.2965844100        0.3174798612
 O         -6.9791580177        0.4558852896       -1.7749205762
 H         -7.9270927803        0.4856533742       -1.9082147902
 H         -6.7896828545       -0.3767671683       -1.3039635042
 O          0.0225611153       -3.2090799057       -3.7530644056
 H          0.3877667541       -2.3909236419       -4.1337464531
 H         -0.8986900902       -2.9997896152       -3.5632943106
 O         -1.2140391591        3.7425334202        2.0958394393
 H         -1.4104633891        3.2845614244        1.2537896013
 H         -1.9040233983        3.4589200987        2.7140638765
