  76
       -127.45881807
 H         -1.0934771854       -0.0788697419       -0.1410897196
 O         -3.0130471755       -0.4270660490       -2.5310534143
 H         -2.2390013629        0.0341670414       -2.8995027718
 H         -3.1679659349       -0.0394003283       -1.6542322633
 O         -0.9095039561       -0.9147451155        0.5204200060
 H         -0.8379169073       -0.5126321891        1.4535064882
 H         -1.7226879778       -1.5245180738        0.5085758871
 O          0.7564263247       -0.8855251603       -1.8711267314
 H          0.9404557721       -0.2672196363       -1.1305857340
 H          1.6351103266       -1.1600105606       -2.1885966354
 O         -2.0491364867        2.3367309756        1.4626244180
 H         -2.1660587725        1.6395789300        2.1141069541
 H         -1.1293344234        2.6719076058        1.5696117791
 O          3.5251167371        0.6099337223        2.7792379919
 H          3.1706189196       -0.2561910554        2.5185291527
 H          2.7928300924        1.0532768983        3.2316039534
 O          2.5312338207       -3.0429423634       -0.1503267333
 H          1.7360987535       -3.4057174637       -0.5575209330
 H          2.9824527782       -2.5359688843       -0.8432895630
 O          1.1135251338        1.8175630774        3.6139709971
 H          1.0041786780        2.4327133963        2.8634153316
 H          1.0358010963        2.3327726714        4.4180201826
 O         -0.0772883503       -2.5482835953        3.3448678689
 H         -0.4017767330       -3.1439994240        2.6336337750
 H          0.0881535495       -3.0927460738        4.1151527173
 O         -0.6457117630        0.5418870580       -3.6485890751
 H         -0.1320666830       -0.0412529054       -3.0423787017
 H         -0.5495387691        0.1859376339       -4.5322033125
 O          3.8502662375        1.9011387983        0.5025893276
 H          3.8674359395        1.4107691551        1.3645515714
 H          4.4009464448        2.6741088427        0.6269119250
 O         -2.9191640517       -2.5199821877        0.5155143660
 H         -2.5102452890       -3.2644270204        0.9822958726
 H         -2.9575658405       -2.7817874099       -0.4346668690
 O         -0.1691623169       -3.2723822691       -1.0916615100
 H         -0.9915195631       -3.3859447604       -1.5904907910
 H          0.1137086347       -2.3523272771       -1.2950313936
 O          1.3741960431        0.6813092344        0.2537333224
 H          2.2545848221        1.0655715237        0.1289895762
 H          1.5087547782       -0.0607178510        0.8906779523
 O          1.9104974974       -1.3739513434        1.8155731477
 H          2.1986511848       -2.0421812101        1.1511270098
 H          1.2753380192       -1.8142744945        2.4006264424
 O         -3.7639221236        0.1206322593        0.1513812634
 H         -4.6497844169        0.4672194838        0.2541566706
 H         -3.7861238833       -0.8000839784        0.4420714727
 O          3.3597011207       -1.4233334593       -2.2886976502
 H          3.9704742682       -1.7402215092       -2.9543224766
 H          3.4923072981       -0.4424870463       -2.2294803378
 O         -1.3520422719        1.1137567365       -0.8060742596
 H         -0.5141831904        1.5129363703       -1.1263741320
 H         -1.7039841462        1.6460093559       -0.0577271011
 O         -2.6441194804        3.9331674782       -0.7172501901
 H         -3.0503639971        3.3352811200       -1.3484017955
 H         -2.7427225106        3.5291158743        0.1570045355
 O         -0.8524030050       -4.1206582564        1.3078799316
 H         -0.5078807181       -3.7810258437        0.4394480816
 H         -0.6000588749       -5.0436843940        1.3526035795
 O          0.5089370390        2.9950220350        1.2811673085
 H          0.8139750709        2.1715028197        0.8338967409
 H          0.4966424220        3.6816690127        0.5941928576
 O         -0.0575628794        4.5851005657       -0.9031449749
 H         -1.0285411180        4.4195833552       -0.8724309185
 H          0.0543041954        5.5258941517       -1.0423627563
 O          3.3877796852        1.2057808418       -2.1271472649
 H          2.4963708841        1.5920753457       -2.1516833730
 H          3.7745899112        1.4852983003       -1.2842335058
 O         -2.7273967910       -2.9714872326       -2.0945754339
 H         -3.3496735993       -3.4465949003       -2.6455756190
 H         -2.8163345740       -2.0042438408       -2.3410772207
 O          0.7770069505        2.2518668858       -2.0263538445
 H          0.3287831352        2.0250781634       -2.8542926952
 H          0.6037938500        3.1868592552       -1.8278623894
 O         -0.8393095643        0.0408743394        2.8918074634
 H         -0.0950367659        0.6194470829        3.1533381673
 H         -0.6852178458       -0.8086410914        3.3350472522
