  601
      -1018.96485134
 H         -0.5824985267        0.4055573137       -0.5545857829
 O         -0.3256659792        0.0617170153       -1.4739133586
 H          0.5806842706        0.4368394288       -1.7543837251
 H         -0.9973162460        0.3416477063       -2.1827770777
 O          4.5038609957        2.7394022391        0.1341998649
 H          4.6529903995        3.6326790090        0.5004528475
 H          3.8823607685        2.8826880838       -0.6130247409
 O          3.4713094696        1.3972941491        2.2288420143
 H          3.7787254338        1.9842796725        1.5111986434
 H          3.8293272446        1.7589875223        3.0623328518
 O          3.7049197883       -3.4095805384       -0.4389498639
 H          2.9275929257       -2.9176139464       -0.7523695597
 H          3.8801588687       -4.1008011654       -1.0924641097
 O         -2.5914357362        1.5018122910       -1.0438656231
 H         -2.8308392065        0.8375272364       -0.3789996969
 H         -3.4260047361        1.7373340775       -1.4837462052
 O         -0.8616723526        0.5827953499        0.9714588921
 H         -0.1190430185        0.9258328409        1.5003515654
 H         -1.6547660038        1.0148104214        1.3471317008
 O          2.9759069570        4.1634683866        3.4707182465
 H          2.9035510345        5.1071958407        3.6867488010
 H          2.4499023220        3.6705943856        4.1179496232
 O          3.1828119348       -2.6831053939        5.6688770905
 H          3.8872942384       -2.3860992060        6.2744414909
 H          2.8890687971       -1.8516336830        5.2233917825
 O         -3.0002066504       -1.7883176897       -1.4410146452
 H         -3.6019996072       -2.5476883355       -1.3396409785
 H         -3.1119952444       -1.2391130349       -0.6435536950
 O         -3.4314610305       -0.3477235707        0.7708886423
 H         -4.3527584814       -0.0567052657        0.8796632094
 H         -3.0682703739       -0.5766773235        1.6399796501
 O          0.2207639837       -6.0352273410        2.0378677355
 H          0.8715910171       -6.3581128431        2.6860159777
 H          0.5966381762       -5.1888024089        1.7001615880
 O          5.9485190627       -2.2355515845       -1.6031405662
 H          5.7451167571       -2.5638193184       -0.7107703363
 H          5.1319877791       -1.8445097062       -1.9553487119
 O          0.8548115489        5.3985798324       -1.6755950097
 H          0.0590529045        5.4661800882       -1.0993697965
 H          0.6979487290        6.1016523398       -2.3429993767
 O         -4.5557118915       -2.1885437904       -7.1328878519
 H         -5.2505737158       -1.5298347774       -6.9874385366
 H         -3.7271170988       -1.7958078781       -6.8006446017
 O         -4.4332758381       -4.0359784946       -1.1106463878
 H         -5.2767967689       -3.8595859596       -1.5700677745
 H         -3.9309272853       -4.6923170438       -1.6314458330
 O         -2.0316354255       -1.1379616412        3.0516528778
 H         -1.9868262678       -2.0914909186        2.9014655443
 H         -2.2385237644       -1.0521070870        4.0007946540
 O          0.6310630625       -1.1887120037        2.8058009375
 H         -0.3405680280       -1.0618146476        2.8657840602
 H          0.7938425056       -2.1339398012        2.7541308898
 O          1.6162991079       -0.1312235372        0.4093495553
 H          1.3944530219       -0.5343385799        1.2639257843
 H          2.5964598085       -0.0780026879        0.3728954509
 O         -0.9125046933       -2.0453122320        0.5466168261
 H         -0.8914836854       -1.0986468721        0.7724059503
 H         -1.7704222859       -2.3927655223        0.8307837664
 O         -1.8575838178       -1.6931556674       -3.8068629658
 H         -2.0355835235       -2.6360780919       -3.9933811611
 H         -2.3622900673       -1.4931684122       -2.9986421229
 O          0.4911411854       -2.0260091731       -6.2477845757
 H         -0.4719305562       -1.8886309193       -6.2995974579
 H          0.7097784995       -1.9005475064       -5.2992639209
 O          0.9128938883        1.5409041942        2.7379306227
 H          0.7371848557        0.9019257905        3.4350977564
 H          1.8794258503        1.4960630257        2.5321696026
 O         -4.4697197383        3.9544023638       -6.7213680693
 H         -4.3653596376        3.6992094386       -5.7816419447
 H         -5.1642356860        4.6128133803       -6.7322933621
 O         -1.5025224768        3.4464364574        0.4164900664
 H         -1.9332167205        2.8039108870       -0.1832945157
 H         -0.5901552513        3.1347275681        0.4906754183
 O         -4.4929166422        2.9409149054        0.6325767414
 H         -5.0296826991        2.1351668127        0.4958612543
 H         -3.6884310448        2.6254628996        1.0969870211
 O          2.6516101867       -3.3837880426       -3.6722915517
 H          3.1804764268       -3.1941942090       -4.4587932097
 H          3.1195836549       -4.1315361820       -3.2297153304
 O          4.0273030250       -5.2854776715       -2.4535925562
 H          4.9102634787       -5.1420589321       -2.8227752538
 H          3.6632518394       -6.0936309527       -2.8852971976
 O          1.4844874161       -4.9359279950       -1.2885633855
 H          1.5593831303       -4.2120482986       -1.9152924776
 H          1.3094444747       -4.5129918325       -0.4165120873
 O         -5.0216851491       -0.5770229194        6.2638057393
 H         -5.3493599587       -1.5071226496        6.2559068153
 H         -4.8364647077       -0.3416508286        7.1865794526
 O         -0.9747348783       -3.5408148936       -1.6607942948
 H         -1.2799992961       -4.2318939696       -1.0516934854
 H         -1.6188063898       -2.8117573444       -1.5644548841
 O          7.0638009853        2.9206226888       -0.7679776690
 H          6.1441606818        2.7187965135       -0.4934619752
 H          7.6137960553        2.6362114075       -0.0157849186
 O          3.5736938960       -1.1871053211       -2.3920257211
 H          2.9891384988       -0.4140869507       -2.5010591233
 H          3.1208060708       -1.9482167564       -2.7964582109
 O          3.8067170247        2.5484418914        7.5769749682
 H          3.7967810753        2.7372500403        8.5144318045
 H          3.4141753699        3.3274986056        7.1335284058
 O          1.3266047880       -2.1561518907       -1.3116638854
 H          1.3527327502       -1.3894960394       -0.7001420106
 H          0.4332743488       -2.5377808812       -1.2246695362
 O          2.3874864414        8.2345713132        1.2382754374
 H          2.8128130913        9.0728040158        1.0626032288
 H          2.5792353338        7.6420627534        0.4603004523
 O          2.8039277329        4.9504185758        6.6149507774
 H          1.9654348526        4.9154004964        6.1055340435
 H          2.5834212572        5.3817451153        7.4398069634
 O          5.6641766588       -4.0941421828        6.4199436032
 H          5.5605916874       -3.3276618562        6.9950469797
 H          6.3785589818       -3.8646093128        5.8062518354
 O          4.4204405323        4.9543939253       -6.0938221900
 H          3.6046513354        5.4701660101       -6.1732701851
 H          4.2835948500        4.2076406568       -6.6948799943
 O          0.7460327649       -1.2039743636       -3.7568624600
 H         -0.2301264232       -1.2530173173       -3.7297822559
 H          1.0397073559       -1.5886956007       -2.9071812537
 O          8.1364716239       -1.0888216078       -3.0764556305
 H          7.1853438636       -1.1060148793       -3.2662021387
 H          8.3569418352       -0.1423249298       -3.0464046591
 O          4.2593198773        1.9895115112        4.7483194794
 H          3.3610628032        2.0305766134        5.1183030520
 H          4.6211395200        1.0953756087        4.8626271739
 O         -3.7684264083       -3.4478690937        3.8827994465
 H         -3.9003999793       -4.3840857474        4.0458269761
 H         -3.4863717279       -3.3958617557        2.9423432220
 O         -4.0263585355        0.0517892725        8.7524648096
 H         -3.1610828760       -0.4018782013        8.6229748358
 H         -4.3173019907       -0.1481515604        9.6411734604
 O         -0.4251551662       -6.5938649553       -1.8389191370
 H          0.2494050020       -5.8846613899       -1.7123567602
 H         -0.2325170204       -7.2339342998       -1.1157049436
 O          2.9786833549       -2.0252697546        1.8579619004
 H          3.5808144799       -1.6385505230        1.2124476675
 H          3.5327601999       -2.4834624124        2.5061332895
 O          8.0641372267        1.6613246587       -3.0782104933
 H          7.8124582280        2.0854677663       -2.2424944130
 H          7.4949223416        2.0341388254       -3.7602002767
 O          0.2021852439       -2.3276232828        5.4476000649
 H          1.1050479670       -2.6370271298        5.3133992896
 H         -0.3265656259       -2.7546147346        4.7301800463
 O          0.9704449470       -4.2698007054       -7.4987746391
 H          0.2414099321       -4.2823830006       -8.1239771146
 H          0.7931887740       -3.4741478591       -6.9339654702
 O          4.1004006427       -5.6780008359        4.7666867490
 H          4.5814791148       -5.1921387631        5.4572663753
 H          4.7341430243       -5.7529190398        4.0358865583
 O          6.0312320629        2.7545607505       -4.8462666239
 H          5.0559569817        2.6338090254       -4.7314410036
 H          6.1478931984        3.5957238563       -5.2906147512
 O          6.9276044272        0.0863337724       -0.6371461391
 H          6.4227986981        0.6533701191       -1.2503148035
 H          6.7939686752       -0.8235915541       -0.9658627766
 O          2.1581497218        4.5505315871        0.9714891698
 H          2.5512089942        4.3108276324        1.8313828616
 H          1.3394907343        5.0249666527        1.2070994979
 O          1.8082732998       -4.1515593245        3.7130263339
 H          2.3195315880       -4.4005044534        2.9159057851
 H          2.3497533938       -4.4762639813        4.4377745056
 O          2.5494689519       -0.4434228675        4.4674512847
 H          1.9210152922       -0.7107068004        3.7654255390
 H          3.4271069841       -0.3948057616        4.0587475538
 O         -3.7970996029       -7.4473102953       -4.3496014631
 H         -3.3977165199       -7.1204662704       -5.1634422329
 H         -3.2289442958       -8.1543587314       -3.9949261024
 O          6.2469746112        5.2975781543       -1.7130008849
 H          6.7021780230        4.4562332262       -1.5225387467
 H          5.7592160056        5.4952028538       -0.8951520879
 O          0.1651199760        0.7144429137        7.9249779253
 H          1.0630722878        0.3265914875        7.8922948076
 H         -0.4725419940        0.0223401296        8.1881494330
 O          5.5710528931        3.1870736657        2.6835966964
 H          4.7767016059        3.6267591867        3.0185726088
 H          6.1876373940        3.8702569032        2.3821090565
 O         -5.5438476060       -2.1487794152        0.6831560609
 H         -5.5898619943       -1.7524229154        1.5753351135
 H         -6.3359972503       -2.6986972244        0.5867629084
 O         -2.5833674764       -1.4169650977        5.6435930825
 H         -2.7510938752       -2.3796425757        5.6849773061
 H         -3.4606306020       -0.9961263142        5.7541373937
 O         -7.4302164330        3.5721594154       -3.4590041451
 H         -8.3825600820        3.6633501084       -3.4583176453
 H         -7.1430317083        3.6518476361       -2.5204196268
 O         -5.7380334073        3.3588809262        2.9480014288
 H         -5.2864819080        3.3217650319        2.0750439693
 H         -5.4928571430        2.5263364026        3.3813722257
 O         -5.2062659952        6.5625143304       -1.7824515787
 H         -5.5965709718        6.4920289150       -0.9011335802
 H         -4.6174363724        7.3489598510       -1.7631940291
 O          0.9637158047        2.4370112419       -0.0051474507
 H          1.3208970737        1.5548762822        0.1995751494
 H          1.5409892256        3.1290883163        0.3755768540
 O         -0.3026126293        2.8419358711       -2.3230754857
 H          0.1483937060        2.7023487654       -1.4721248685
 H         -0.6531645601        3.7332315876       -2.3046629046
 O         -1.6027388680        0.8861194854       -3.5106484219
 H         -1.4940863310        1.7768351470       -3.1275582965
 H         -2.5408001406        0.7536107607       -3.7475732006
 O         -4.0834669110        0.4090723883       -4.4116628253
 H         -4.1301305522        0.6383607678       -5.3572554959
 H         -4.2964892564       -0.5408774750       -4.3088007939
 O          4.7523517180       -3.2304085249        3.4970007874
 H          5.6732952485       -3.1941687285        3.8254435372
 H          4.1977130369       -3.1853709244        4.2942182681
 O         -3.1958412390       -3.2602261575        1.3406629743
 H         -4.0076000996       -2.9091731638        0.9213505867
 H         -2.8998189240       -4.0523681697        0.8548643089
 O         -6.7420933218        0.9196509134       -4.1247977482
 H         -5.7734616295        0.8642770544       -3.9876236469
 H         -6.9866705476        1.8379960447       -3.9333986702
 O          2.9738361570       -6.9190936276       -0.1285877325
 H          3.0020048165       -6.2885236822        0.6321713426
 H          2.6968952851       -6.3631334559       -0.8743683023
 O          5.9483736132       -2.3697804790        1.1858462969
 H          5.4027813873       -2.7548491014        1.8844215411
 H          6.1404071342       -1.4602712586        1.4603922739
 O         -5.6449020946       -0.6789785357       -1.6637820072
 H         -5.5177031573       -1.1801218997       -0.8431944771
 H         -5.2892217282       -1.2155316552       -2.3872269757
 O          0.3650339419        7.3642343792        4.0314084650
 H          0.0217416756        8.1533590579        3.6028774925
 H          1.3340087762        7.3913086306        3.9785397043
 O          7.6612407219        4.7819334985        1.8097007540
 H          8.1016039911        3.9156487519        1.7946264901
 H          7.5161708971        5.0200797020        0.8907486468
 O          5.6101732327       -7.1520184281       -0.0392800695
 H          4.6315248381       -7.0963157061       -0.1762683025
 H          5.8940986363       -7.9788849270       -0.4259446714
 O          4.1629601243       -0.1619920617       -0.0352751105
 H          4.0263372744       -0.6464904306       -0.8690787209
 H          4.4138954072        0.7289454094       -0.3039741540
 O          3.3223495175       -5.0027135096        1.6491912140
 H          4.1947049015       -5.2211992163        2.0343332656
 H          3.4978454609       -4.3323237079        0.9483730677
 O         -4.1494305389        3.2829835278       -4.1262807165
 H         -4.5377145796        4.1491202869       -3.9127505493
 H         -4.4436457895        2.6642154931       -3.4280856326
 O          1.4633969493        4.0992533094       -4.0963250093
 H          1.5645954654        4.8295297544       -4.7286090966
 H          1.1372102370        4.4529059608       -3.2581857232
 O         -1.5994297437        5.1808673550       -3.1312686264
 H         -1.9733251973        5.9759706151       -3.5412312315
 H         -2.2866302213        4.8721267244       -2.5129931472
 O          4.8854932938       -1.4664275097        7.3745887975
 H          5.5056775216       -0.7419808242        7.1723886717
 H          4.0674214751       -0.9977643727        7.6141106942
 O         -2.6888747182        1.9191572668        2.2563855540
 H         -3.3607283291        1.5498745363        2.8631521292
 H         -2.1002306137        2.4969900477        2.7612699046
 O          8.2253494835        2.1216690685        1.5701222035
 H          7.4233964344        1.6444851252        1.8662074225
 H          8.8929192779        1.4370235873        1.4502308650
 O         -3.5353928199        8.6223222830       -1.6500329851
 H         -2.5582211314        8.6494127634       -1.5771653396
 H         -3.8417055957        8.7266343218       -0.7272665270
 O         -4.6226174661        1.0051883162        3.8012324836
 H         -4.0173949987        0.9870347622        4.5579993041
 H         -4.9128892455        0.0895697652        3.6175674693
 O          2.6488708406        0.1104014534        7.1904706847
 H          2.5353693903       -0.0093268200        6.2310531454
 H          3.0603076250        0.9884296378        7.3030734878
 O         -1.3252058214        6.0147408998       -0.3232666973
 H         -2.0702233766        5.4116544363       -0.5051987991
 H         -1.0090010596        5.8425926415        0.5852572746
 O         -1.7232799304        4.6800128971        7.0817980607
 H         -2.3215484062        3.9564263901        7.3276339951
 H         -2.2627664859        5.3533476538        6.6395287741
 O         -4.4316575417       -6.1301419518        3.1263630796
 H         -3.5802403890       -6.5123946562        2.7934756929
 H         -4.8902473413       -6.8552229634        3.5508342658
 O         -5.0213636325        1.8577013756       -2.0524109752
 H         -5.6095581399        2.4525510403       -1.5581996648
 H         -5.3011542440        0.9297238370       -1.8838911728
 O          0.3705008665        5.0215333816        5.3865795387
 H          0.2665530819        5.9004792737        4.9916446168
 H         -0.3350184877        4.9320588722        6.0502690668
 O         -3.4593169637        4.5615705255       -1.3132653945
 H         -3.8271301663        3.9383426080       -0.6599295471
 H         -4.1358834763        5.2419931192       -1.4740905789
 O         -7.8355661716       -1.5142275938        4.7247516912
 H         -7.6360424505       -2.1342185824        5.4306456065
 H         -7.8217905993       -0.6259793846        5.1080263934
 O          2.0429288257       -4.5801188780        7.1764834585
 H          2.4430516234       -3.8640590987        6.6382857563
 H          2.7796328921       -5.0756868128        7.5344753200
 O          7.2929054203       -3.1238778511        4.3468043205
 H          7.6228042329       -2.2208399390        4.1593715027
 H          7.6947642654       -3.6739763594        3.6601656553
 O         -0.1111320259        5.5571072552        1.9947876627
 H          0.0032615492        6.2398420389        2.6746749362
 H         -0.4439361075        4.7526147794        2.4543098386
 O          0.9919412153       -3.7060579845        1.0260050987
 H          0.2349648368       -3.0901661795        0.8483170711
 H          1.7541557984       -3.1384353149        1.2585267940
 O          1.7337992972        5.7360751914       -6.2118201507
 H          0.9772706814        6.3334908581       -6.2418411979
 H          1.4425974163        4.9193555486       -6.6673510622
 O         -3.1348311821        7.2038502737       -4.1730215679
 H         -3.9713667465        6.7655551289       -4.3666194694
 H         -3.3073971122        7.8299556419       -3.4566387482
 O         -0.7126497924        3.4552543031        3.4751248543
 H         -0.0597385151        2.7918344242        3.1686570982
 H         -0.3086491872        3.8843852383        4.2504842182
 O         -7.5877640268        1.0435216531        2.8180955532
 H         -7.3721108981        1.0992969171        3.7721835995
 H         -8.0256571098        0.1992400784        2.6594150037
 O          7.2343679798       -5.0255593623       -0.8637553725
 H          7.0349446915       -4.9264232273       -1.8037106765
 H          6.6545341875       -5.7314484609       -0.5408805041
 O          3.2930107030        7.3994488760       -3.4153532223
 H          3.9168678714        7.9152489020       -3.9234882238
 H          3.6049094179        6.4562441975       -3.4528068762
 O         -8.0203496968       -1.2275533915       -2.9825253220
 H         -8.2594929366       -1.6831444573       -3.7957397659
 H         -7.4878624197       -0.4588314759       -3.2709917137
 O         -5.6080811801        5.5416961457       -4.1957576889
 H         -6.3665019512        4.9385228114       -4.1570067710
 H         -5.5937672880        5.9777557541       -3.3231241088
 O         -4.9085812694       -2.0953206713       -3.9278439504
 H         -5.7461234135       -2.3150138903       -4.3715573071
 H         -4.2772026660       -2.8174549344       -4.1198572963
 O         -5.8888107245        0.7271947463        0.8023220607
 H         -6.3479720993        0.8564464620        1.6533046686
 H         -6.5769374596        0.4422729437        0.1752172582
 O          3.3608819788       -2.6587955729       -7.8955315174
 H          2.5445529453       -3.1669129330       -7.9836561282
 H          3.7575218405       -2.9289307022       -7.0587474370
 O         -7.7111063255        4.9515151052        2.2013873423
 H         -7.1847301296        4.2365334859        2.6116721680
 H         -8.3582930600        4.5048857470        1.6499155378
 O         -4.2389407838        1.2456195315       -7.0313128096
 H         -3.2919502089        1.1938952181       -7.2338417504
 H         -4.4457907400        2.1928892407       -7.0694991280
 O          3.6445029971        0.0001505840       -7.4940686795
 H          3.6155363863       -0.8943443155       -7.8790314848
 H          3.3650319867       -0.1462515475       -6.5514667532
 O          0.6688448043        1.6227166570       -4.7961513158
 H          0.6726267746        2.5162773504       -4.4078738481
 H         -0.1637269455        1.2155445454       -4.5013823438
 O         -4.3724765798        8.2523492782        0.9169258916
 H         -3.7172564883        8.1433674810        1.6277004005
 H         -4.8760716506        7.4252091562        0.9104845800
 O          7.1736584069        1.8786963075        4.3868893188
 H          6.4936295362        2.2702220609        3.7864062936
 H          7.8128694741        2.5716499378        4.5475226732
 O         -2.4627963326        1.4632176432        5.3287971639
 H         -2.6003842956        1.7087027495        6.2576154266
 H         -1.5920522075        1.0300415660        5.2386016463
 O          4.8872938482        5.3596619526        0.6834575284
 H          5.0222027664        5.6885579066        1.5877778650
 H          4.0468047999        5.7193668288        0.3520268295
 O         -3.1786260646        4.9445211165        1.8974156326
 H         -3.3150593756        4.4557378035        2.7285611336
 H         -2.5506410069        4.4071715577        1.3700561782
 O         -3.0301939397        6.2744592879        5.1826340162
 H         -3.9944355121        6.2797225858        5.0633497267
 H         -2.6933622148        6.7883895230        4.4232409579
 O         -0.3359137800        8.5782770969        1.4854708812
 H         -0.6321891631        8.7511028575        0.5814861468
 H          0.6145743121        8.3934807699        1.4075620754
 O          5.5966812563        6.0995464359        3.2720747215
 H          5.5168121064        5.4900748641        4.0485989383
 H          6.5245871379        6.0695555093        3.0203138467
 O         -6.6695121534        3.7051471372       -0.9047417146
 H         -7.3229031497        3.3016595542       -0.2928414243
 H         -6.1994040474        4.3851518059       -0.3904308003
 O         -1.6814486689        4.5902126943       -7.1471324074
 H         -2.5935444924        4.5483819252       -7.4505607166
 H         -1.6846477830        4.0652428706       -6.3029383056
 O         -8.2148250141        0.0291465909       -0.4258647664
 H         -8.4779148612       -0.5874301811        0.2675578745
 H         -8.1596191275       -0.4615155584       -1.2579926947
 O         -2.1282385713       -1.2885729475       -6.3423387467
 H         -2.1358357432       -1.3194320829       -5.3532484608
 H         -1.9417077673       -0.3535756655       -6.5772011498
 O         -0.8768384420        8.4066022888       -1.3011733486
 H         -1.0624346066        7.5059733916       -0.9505313130
 H         -0.3650020596        8.2571065003       -2.1080234804
 O         -2.4830685606        7.3781540835        2.7407952295
 H         -1.7094166533        7.7551345534        2.2915960052
 H         -2.6453384464        6.4933136008        2.3452137446
 O          3.4249601783        2.3801477904       -4.7676923341
 H          3.3481834004        2.5015906459       -5.7355229087
 H          2.7711094866        2.9939124643       -4.3787318998
 O          6.7556188919       -2.0576618629       -6.8488244627
 H          6.6970455452       -1.0895292716       -6.7577755631
 H          6.8081484594       -2.2502811505       -7.7847255530
 O          4.2667144064        4.9641445205       -3.4003421596
 H          4.4831826151        4.8665352387       -4.3461849774
 H          5.0940126094        5.0940417926       -2.8721895176
 O         -8.4924275074       -1.5562727756        1.9710319964
 H         -8.3373229290       -2.3908431703        1.5021190642
 H         -8.5069461710       -1.7694714333        2.9115090845
 O          3.4318018636        2.7201186725       -7.4343047684
 H          2.4913127235        2.9273399968       -7.5706859049
 H          3.5595917114        1.8057150755       -7.7261469000
 O         -0.2356079254       -6.0563848205       -5.6871662344
 H         -0.1756742503       -5.3249132885       -5.0131759441
 H          0.3162176281       -5.7393710202       -6.4151996963
 O          0.5623682213        7.3499762902       -3.4612508117
 H          0.1212782692        7.1368261683       -4.3001374080
 H          1.5034243467        7.5053676572       -3.6392592442
 O          1.8693614098        0.9362764444       -2.4534339663
 H          2.2489868063        1.7833931738       -2.1501498996
 H          1.4959505340        1.1091968917       -3.3433942644
 O         -5.6392294127        5.6841143032        4.4150113726
 H         -5.5411709239        4.8772885570        3.8689175314
 H         -6.3323609946        6.1968302636        3.9984845194
 O         -2.8709196922       -5.7317709102       -2.4805855139
 H         -3.2723726021       -6.4325177217       -3.0234671417
 H         -1.9695238039       -6.0321115542       -2.2419820071
 O         -3.3810041668        3.7593713892        4.3523615452
 H         -3.0510371368        4.5932621281        4.7350183586
 H         -2.8170612274        3.0220423572        4.6518361390
 O         -1.7308330836       -1.1357441010        8.1238505214
 H         -1.3490590669       -2.0099278162        8.3061865090
 H         -1.9597007480       -1.1748272896        7.1581174534
 O         -5.4443800127        3.3248013269        5.9890840137
 H         -5.8598292491        4.1915959088        5.9826173575
 H         -4.7609877438        3.3857699775        5.2762949610
 O          5.2717542002        4.4672340731        5.3497484134
 H          4.4991228603        4.8113773617        5.8145592032
 H          5.0300968486        3.5514214984        5.1107360642
 O          2.9588096737        6.6971745410       -0.7599966070
 H          3.1720384023        7.1230120848       -1.6029818675
 H          2.1825021480        6.1185241349       -0.9521250207
 O          3.0004724977        6.9221034021        3.5225136346
 H          3.9636878559        6.8825806250        3.5995015858
 H          2.8234506907        7.3275191812        2.6525801124
 O         -1.9244449117       -5.7607904173        4.7881706749
 H         -1.0715318399       -5.9544653305        5.2531510936
 H         -2.1184409665       -6.5483921220        4.2751492045
 O          5.5979020836       -0.6506676082       -4.1237434258
 H          4.6616813722       -0.8454793066       -4.2968918851
 H          5.9409651816       -0.2490443806       -4.9380242092
 O         -0.8403671996        6.7924389480       -5.7919671112
 H         -1.1422695748        6.0424566786       -6.3467088328
 H         -1.6460516551        7.1630697932       -5.4096158078
 O          9.0045465295       -0.4988920089        1.0159706048
 H          8.3378007222       -0.2132741650        0.3665965002
 H          9.2720352551       -1.3580078749        0.6597371633
 O          2.9744512683       -7.2398361979       -3.8484203457
 H          2.1022230357       -7.6660634684       -3.8151921130
 H          2.9997874326       -6.7527811309       -4.6885498050
 O          8.7716518107       -2.5822830645       -0.7308448110
 H          8.2468852258       -3.3873457069       -0.7996686545
 H          8.6227348166       -2.0925992348       -1.5543502763
 O         -0.8611853763       -3.6718244360        3.4512247635
 H         -1.3908649512       -4.3841221126        3.8501856412
 H          0.0342197654       -4.0374745686        3.3470554022
 O         -2.0215971479       -9.0016110408       -2.9719424248
 H         -1.1475695408       -8.7415030217       -3.3511063541
 H         -2.0110071509       -9.9543251447       -2.8915904140
 O         -1.9230081089       -5.2844316699        0.2210857179
 H         -2.2511170772       -6.1557192244       -0.0881139530
 H         -1.1873728666       -5.4463686072        0.8181022330
 O          5.2359051193       -0.5282222441        4.2886261168
 H          5.7583758357       -0.3018060278        3.5019299213
 H          5.8624245066       -0.8299673530        4.9478041988
 O         -5.3336716934       -7.2371573282       -1.1613729757
 H         -5.5092629608       -6.7090785677       -1.9461582208
 H         -5.6235950891       -6.6936912682       -0.4074998521
 O         -5.5578906739        5.6837556613        0.7541838047
 H         -6.3124869282        5.5324913155        1.3578319186
 H         -4.7458715060        5.3245061946        1.1738474438
 O          0.7345570032        3.3570719916        7.8221982736
 H         -0.0828317192        3.8651236203        7.7869374292
 H          0.4731060827        2.4508261039        8.0511353176
 O          6.0897802118        0.3788884707        1.8417413318
 H          6.3315756867        0.3034764726        0.8887049255
 H          5.1762325669        0.7050216299        1.8533168734
 O         -6.9308558147       -3.5372108523       -2.0144706244
 H         -6.8705099898       -4.1595139321       -2.7485686267
 H         -7.2153041980       -2.6712372986       -2.3716118349
 O         -5.4771203019       -1.4531550793        3.2844539862
 H         -4.8929863439       -2.1702878314        3.6058343791
 H         -6.3311962135       -1.5611482104        3.7339590997
 O          0.4005154228       -6.3187250865        5.8275300099
 H          0.9502792178       -5.6821816914        6.3163043997
 H          0.9600836376       -6.6803510433        5.1234037323
 O         -7.2447176255       -2.6420208619       -5.2735442233
 H         -7.1630624587       -1.9141889520       -5.9067355831
 H         -6.9613063781       -3.4413589846       -5.7325993578
 O         -5.6266610220       -5.4105104205        0.8032347225
 H         -5.0850131352       -5.6388439988        1.5747280832
 H         -5.0770248546       -4.8518980179        0.2000036543
 O         -0.0404576383        0.3719986168        5.3018629372
 H          0.0009340186        0.5398188625        6.2691429595
 H          0.0162196902       -0.6006873614        5.2244052414
 O          1.6991346484        2.5109708832        5.3933454877
 H          1.3994662984        2.8889298750        6.2400130022
 H          1.1210900344        1.7556343173        5.2114867698
 O         -3.4188408131        2.5326383617        7.6163301642
 H         -3.6528561676        1.7650837199        8.1576195430
 H         -4.2413016830        2.8108779936        7.1655455304
 O          0.4921607012       -8.0092201617        0.1842846665
 H          1.4378371719       -7.9128838299       -0.0220342868
 H          0.3454069968       -7.3719939390        0.9057345929
 O          3.0555323325       -5.4820755793       -5.9628120078
 H          3.7586748310       -4.8233754209       -5.8745136266
 H          2.4098562407       -5.1303522580       -6.5849454960
 O         -2.7179799242       -5.6451884120       -6.4725601428
 H         -2.5337612342       -4.9728494706       -7.1544708779
 H         -1.8161359635       -5.9257443148       -6.1869754010
 O         -2.2285752499       -7.3402985241        2.3364849550
 H         -1.3611378441       -6.9052949731        2.2856441264
 H         -2.3955109666       -7.7092410870        1.4533305842
 O         -5.6809242777       -3.1371815974        6.1295914645
 H         -4.8098854231       -3.5152969345        6.3324465475
 H         -5.9376096035       -3.5079314002        5.2714936652
 O         -5.6993525394       -5.4775965080       -3.6505471974
 H         -5.2920740890       -6.3236300886       -3.8719747963
 H         -5.6328446517       -4.9820478711       -4.4867750157
 O         -3.0098292622       -3.9637252693        6.5423256830
 H         -2.7475976300       -4.6519264085        5.9095674759
 H         -2.2632365659       -3.9049080429        7.1601527085
 O         -2.8152650859       -7.7457805259       -0.3822593858
 H         -2.3787466712       -8.1929117452       -1.1192659312
 H         -3.7471844356       -7.6303338602       -0.6726036903
 O          4.7607735741       -3.3121451700       -5.4429667122
 H          5.2717066223       -3.6699937481       -4.6791928610
 H          5.4391575236       -2.8332201305       -5.9512094730
 O         -1.6468179021        3.2547215104       -4.9234597057
 H         -1.3642554551        3.9585257099       -4.2999361761
 H         -2.5818906081        3.1127047923       -4.6708732373
 O          2.8546784075        3.3552763168       -1.8049131866
 H          2.1553435841        3.9321746782       -1.4708228747
 H          3.3607935973        3.8812326705       -2.4516223426
 O         -1.9726626358       -3.5308750623       -8.0435984912
 H         -2.6613434287       -3.3373849534       -8.6811756339
 H         -1.9837718420       -2.7810358074       -7.4249670348
 O          0.8348725823        3.3159885666       -7.0775828075
 H         -0.0493209967        3.5799588454       -7.3649882173
 H          0.7280637202        2.6525365969       -6.3688742768
 O          2.0625753455       -7.1057864041        3.7629650992
 H          2.4106870706       -7.9486384727        3.4743219483
 H          2.8213893434       -6.5875115152        4.1024762701
 O          8.3348208917       -3.1935465413       -4.7737367974
 H          8.5139012898       -2.4323901347       -4.1903844202
 H          7.9277511368       -2.8262974264       -5.5696142435
 O         -1.5269565410        1.2405403373       -6.8730720981
 H         -0.6334408490        1.0529516103       -7.2200654243
 H         -1.4266420445        1.8236684337       -6.1048106843
 O          6.3019973247       -4.1330228813       -3.4028972241
 H          6.2156739497       -3.3875475673       -2.7578190885
 H          7.1295425197       -3.9342809158       -3.9068393186
 O          0.0184493237       -4.0380369766       -4.0898189060
 H         -0.3899328783       -3.9184269504       -3.2107217331
 H          0.9548240727       -3.7960169748       -4.0056396926
 O          0.2943176912       -8.0133982542       -3.9074129952
 H          0.1219814957       -7.4499253738       -4.6840542158
 H          0.1206231537       -7.4231866484       -3.1328819528
 O         -3.0264481000       -3.9484434656       -4.3933321693
 H         -2.9683812653       -4.5122423591       -5.1857736192
 H         -2.9291979947       -4.5553124236       -3.6286747591
 O          5.7076914233       -5.9122674910        2.4487517997
 H          6.4554900183       -5.2873703373        2.3231988290
 H          5.7581107723       -6.5131895139        1.6901553963
 O         -5.3861458747       -4.5164961669       -6.1850066997
 H         -4.7562263447       -5.1901894895       -6.4558482634
 H         -5.0289071778       -3.6692018510       -6.5397687741
 O          6.1451365708        0.5591087465       -6.5139435060
 H          6.2003764754        1.4155685796       -6.0544000151
 H          5.2713065175        0.5034248668       -6.9465093760
 O          8.0397759638       -0.6853001758        3.5705102649
 H          8.4166887725       -0.6498131535        2.6699030147
 H          7.8665899815        0.2267971708        3.8427502625
 O          5.1536159690        1.2889356985       -2.2964030433
 H          5.3917540570        2.0907143721       -2.7606075785
 H          5.2547931897        0.5581106765       -2.9406839042
 O         -6.4949671424       -0.2639625669       -6.5482075900
 H         -6.7052204717        0.1699485239       -5.6964854715
 H         -5.8630698934        0.3321918583       -6.9738968430
 O         -6.5725323018       -4.1434292148        3.6288503108
 H         -5.8897068453       -4.7546671891        3.3322674965
 H         -7.2227219439       -4.0918761043        2.9261561823
 O          3.0142830273       -0.2729901670       -4.9733119197
 H          3.0899614032        0.6764382531       -4.7532130916
 H          2.1431234896       -0.5555801973       -4.6496874028
 O          7.7282952189       -4.2365468907        1.8583713366
 H          7.2136709415       -3.4837185441        1.4869685807
 H          8.1726523814       -4.6201290318        1.0984691616
 O          0.8535585219        0.2996226258       -7.6139666571
 H          0.7865241063       -0.5539613967       -7.1469583872
 H          1.7894052344        0.3970172168       -7.8199094391
 O         -7.7264186228       -3.8155913333        0.5675886707
 H         -7.7449399236       -3.7399804078       -0.4025473336
 H         -7.0980277167       -4.5486625605        0.7285054951
 O         -6.9815787608        1.0878127313        5.4434334244
 H         -6.2167998581        0.5147321095        5.6551949703
 H         -6.6433918067        1.9808243774        5.6244457743
 O          6.0822496765        0.8886353732        6.7313147680
 H          5.4455605979        1.5655049495        6.9927582799
 H          6.5330965596        1.2343712726        5.9408252714
 O         -8.4492141027        2.5415936736        0.7030105589
 H         -8.1469958215        2.1813554619        1.5560622715
 H         -8.6104804639        1.7528309428        0.1636684028
 O         -0.5574029312       -3.5141419961        7.7084835980
 H         -0.2783033327       -3.0672152358        6.8737305773
 H          0.1876034656       -4.0771040353        7.9375485373
