  144
       -244.31604559
 O          2.8284256259       -0.1855893319       -4.8210283684
 H          2.3396331723        0.5330447317       -4.3735569700
 H          3.2315086591        0.2030549321       -5.5981047578
 O          1.0907935188       -0.3015906091        3.2742526833
 H          1.5805864205       -0.4538592088        2.4421012942
 H          0.3413507075       -0.9326187920        3.2894226641
 O         -3.5713320070        3.3977227445        0.3509548801
 H         -2.9501071843        3.7194532950        1.0324115750
 H         -4.3712823414        3.1398107828        0.8482107466
 O         -0.6799372763        0.9899844294       -2.1086503615
 H          0.1165518887        1.1357308870       -2.6436512416
 H         -1.1380753816        1.8413903129       -2.0462869137
 O          0.2835224140       -2.5571591184        0.7192597983
 H          0.5875154031       -2.9901758367        1.5355189009
 H          0.2702969379       -3.2503081319        0.0306052176
 O         -0.6433930481       -3.9058677176       -3.5748361481
 H         -0.3286845439       -3.0880659571       -3.9939882447
 H         -1.6122210148       -3.8527383619       -3.5510729962
 O          1.3801279166        2.3376362998        3.7386257507
 H          1.1374068436        1.4011241577        3.5935289493
 H          2.3435665347        2.3223162244        3.6699118020
 O          0.7541144411        3.9346750762        1.6448507021
 H         -0.1929738473        4.1423809745        1.7488214500
 H          1.0053265540        3.4920310260        2.4837005257
 O          0.3982833710        4.2130699833       -2.6502976658
 H         -0.5119477675        3.9703754605       -2.3876553353
 H          0.3195039333        5.0164962942       -3.1665194413
 O         -4.8817375842       -0.0144513930        3.4055395397
 H         -5.1638014840        0.8264089875        3.0143123033
 H         -5.1005637050       -0.7043442861        2.7694201543
 O          1.7154678188       -3.5488512434        2.8085360632
 H          2.0552918414       -3.0575311417        3.5731985940
 H          2.4735871014       -3.6173451268        2.2072823206
 O         -3.5155690310        1.2176310866       -2.9432751618
 H         -3.0830966355        0.5329904743       -3.5019878713
 H         -3.2483868745        0.9702089093       -2.0404596548
 O         -2.2456146412        0.2211017305        4.2164056868
 H         -1.8578487662       -0.6609125471        4.2361098620
 H         -3.2004799805        0.1021911102        4.0769003465
 O          0.4222264943       -4.4227342556       -1.2168264629
 H          0.0861317314       -4.2604952720       -2.1312477961
 H          1.3830479590       -4.3847442159       -1.2879250937
 O          3.5011373546        1.8670939044       -1.6156610408
 H          4.1115983571        2.5921719367       -1.4120211708
 H          3.9258784510        1.0176835974       -1.3465408888
 O          6.3317544986       -0.1551976436        0.8255997889
 H          5.9706243906       -0.5597133338        1.6287910761
 H          6.3104576901        0.8015022906        0.9760284560
 O         -1.8587381263        4.2374277573        2.2761782649
 H         -2.1227143601        5.0885257608        2.6279800182
 H         -1.7455096844        3.6406877808        3.0759529680
 O          0.3368643662       -1.4320657231       -4.3528093793
 H          0.6091135153       -1.2672236800       -3.4269434756
 H          1.1172893234       -1.2415979240       -4.8811946021
 O         -2.2577429953       -4.2750799066       -0.7093514735
 H         -2.7087545910       -4.5118869166       -1.5270960536
 H         -1.3798511335       -4.6800559321       -0.7438040881
 O         -1.3541193565        2.7839634465        4.3543872192
 H         -1.7202959540        1.8811881826        4.3948006410
 H         -0.3940528969        2.6910673747        4.4020022623
 O          2.7443047021       -1.7798785621        4.7174820472
 H          2.1346559230       -1.1152362103        4.3095226325
 H          2.6378357046       -1.7179143577        5.6660890535
 O         -5.5704001555        2.2866998961        1.8388777117
 H         -5.9828197482        1.6394737558        1.2087610984
 H         -6.2910560470        2.8031902532        2.2009672092
 O          4.5764329056       -1.0839339476        2.7737812611
 H          4.1696459477       -1.4145308897        3.5891018518
 H          4.1553857857       -0.2031122732        2.6330707688
 O         -5.3920702810       -1.9595855813        1.1800810588
 H         -6.0506875895       -2.6542968171        1.2231287312
 H         -5.0138031765       -1.9757546872        0.2615961024
 O          4.6780963060        4.1392236910       -0.6926165277
 H          3.7426747448        4.4494703016       -0.5683533028
 H          5.1444616165        4.8650110904       -1.1082575890
 O          2.9072987134       -3.2059016613       -1.3011887845
 H          3.3407723768       -3.1712337439       -0.4277976520
 H          3.5568314922       -2.9411293111       -1.9667193378
 O          1.8230017784        1.7983465635        0.4663749898
 H          1.4266321141        2.6399757143        0.7614416089
 H          2.3594463317        1.9636931426       -0.3304741371
 O         -4.3982452286       -1.8124704726       -1.2569133992
 H         -3.5306812724       -1.3951338901       -1.1472164679
 H         -4.9642063475       -1.1487539141       -1.6966326743
 O         -2.3285198017       -0.9457593771       -3.9119583959
 H         -2.0667148878       -1.1628999731       -2.9870086206
 H         -1.4865961869       -0.9316885930       -4.3858587101
 O          5.8385687424        2.6050287456        1.2264800145
 H          5.4472207985        3.1770441973        0.5365270583
 H          6.4698186667        3.1399464539        1.7091428630
 O         -1.5730142641       -1.7028779892       -1.4422932414
 H         -1.7554239080       -2.6206511005       -1.1697145772
 H         -0.6156589753       -1.6269595825       -1.5505092463
 O          2.1576772799        4.8696229663       -0.5308760836
 H          1.5626292422        4.6066676740       -1.2509429782
 H          1.6790841589        4.7115860881        0.2989979873
 O          2.3040765340       -0.8074470955        0.9339201609
 H          1.7687804744       -1.5831754064        0.6928915638
 H          3.0747077198       -0.7745505965        0.3507300884
 O          4.3664854327       -0.4888947049       -0.8660743104
 H          5.1760222716       -0.4255576496       -0.2971612191
 H          4.5874525671       -1.0046728221       -1.6537687178
 O         -5.8641875031        0.1663729611       -2.3875686766
 H         -6.4772453591        0.1311343085       -3.1216280787
 H         -5.0733563901        0.6837610500       -2.6853252881
 O          4.0032972536       -3.1528449378        1.2075089107
 H          4.1797204541       -2.3174884082        1.7131382336
 H          4.7548566810       -3.7246761524        1.3633912664
 O          1.2143395371       -1.1968815977       -1.7989558856
 H          1.7614115090       -1.9925023106       -1.6157071882
 H          1.7670179076       -0.4391364211       -1.5973528162
 O          1.5786047471        1.8129017872       -3.4335208137
 H          1.2039791959        2.7073808492       -3.4274254956
 H          2.3103776491        1.8509474542       -2.7844298160
 O         -0.8496131783       -2.1544183508        3.4650004844
 H         -1.5125885695       -2.3788603366        2.7816343383
 H         -0.3434165081       -2.9573933498        3.6142471165
 O         -3.3975472754       -3.4284202559       -3.2950848999
 H         -3.2302883362       -2.6643064642       -3.8677089139
 H         -3.8854666974       -3.0521759247       -2.5439927766
 O          3.6551058689        1.4124509806        2.4349366340
 H          2.9856490402        1.4036704937        1.7194337410
 H          4.4305910686        1.8666539826        2.0737162719
 O         -6.5982190536        0.4358915118        0.2945679455
 H         -6.2356988962       -0.3883552903        0.6566229813
 H         -6.3833525051        0.4387281372       -0.6511246678
 O         -2.1193966962        3.3833245878       -2.0276828540
 H         -2.6238464546        3.5731809641       -1.2206775632
 H         -2.7277555933        2.8813443177       -2.5981417278
 O          4.3833847868       -1.8510005932       -3.2678193771
 H          4.9879371521       -2.2674246834       -3.8829032945
 H          3.7849673808       -1.2884205373       -3.7986275859
 O         -2.7152076214       -2.8356418204        1.6477939500
 H         -2.5828868600       -3.4190622265        0.8873364491
 H         -3.6605129278       -2.6518108722        1.7114579695
 O         -3.1166560546        0.6378067825       -0.4195781040
 H         -2.2222287188        0.3635212623       -0.1102921935
 H         -3.2601894233        1.4954414344        0.0003992841
 O         -0.7792347992        0.0957360795        0.8037068372
 H         -0.6096353829       -0.8493197583        0.7052971671
 H          0.0341227082        0.5401665138        0.5432210019
 O          8.0740541840       -1.5015845396       -0.8928424635
 H          7.4662430060       -2.1835065335       -1.1812812192
 H          7.6121618113       -0.9975436317       -0.2073395897
