  192
       -320.54811699
 H         -4.3003401091        1.1564778631       -1.4769819755
 C         -4.0674312614        0.6952240454       -0.5176124412
 H         -4.4955093930        1.2882141679        0.2894921413
 C         -2.5619186465        0.6204936832       -0.3230067486
 H         -2.3348633269        0.2350834614        0.6665639551
 H         -2.1397434073        1.6200566936       -0.4185327352
 O         -4.6841153584       -0.5859800389       -0.4434238626
 H         -4.3857454224       -1.1136662074       -1.2158372658
 N         -1.9646228168       -0.2673139681       -1.3311378081
 H         -2.2549364636        0.0422873490       -2.2879904628
 H         -2.2577135172       -1.2550282008       -1.1730693643
 H         -0.9234961423       -0.2520593570       -1.3018424723
 O          0.1322383835        4.9000625437        1.2464107903
 H          0.6527750103        4.4393152727        1.9333768635
 H          0.7813969668        5.2502984946        0.6129701180
 O          5.1577613640       -2.7491206512       -1.2197146406
 H          4.4316372042       -2.1824584748       -1.5648697910
 H          4.7257158030       -3.5358027418       -0.8437680108
 O         -0.0640574520       -0.7106001962        0.5506399663
 H          0.8025449496       -1.1613594264        0.5386133478
 H          0.0287226146        0.0982501199        1.0893340997
 O         -5.2056292707        1.8139931828        2.2418154664
 H         -5.8106673294        1.0927648440        2.5284739922
 H         -5.7468127718        2.3905280101        1.6815417041
 O          0.4748461212       -0.0517574779       -2.3973829349
 H          0.1848619146        0.5711328643       -3.0945997233
 H          0.7731726000       -0.8644080422       -2.8534133040
 O         -6.6859182936        2.9396711550        0.1945158474
 H         -7.4504938379        2.3924239990        0.4327683168
 H         -6.5529770183        2.7951836579       -0.7559543717
 O         -4.0072588565       -1.6076311281       -2.9573069485
 H         -3.8732104556       -0.8264780618       -3.5090699542
 H         -3.1765877231       -2.1135141677       -3.0373356049
 O          3.3288512084       -0.8879953890       -1.6977505075
 H          2.8059456707       -1.1836990358       -0.9184744835
 H          3.8570110541       -0.1146993924       -1.4232005389
 O         -3.6771171938       -5.0923292616       -1.7349780424
 H         -4.3708691488       -4.9799329614       -1.0647626015
 H         -4.1204003430       -5.0511128182       -2.5839064787
 O          4.1572688802       -2.0678951926        4.6202175687
 H          4.3436619129       -1.0982466760        4.6332921788
 H          4.7213450168       -2.4534401089        5.2905115069
 O         -0.3849823756        1.4630310606        2.0838210623
 H         -0.9864440165        2.1457432857        1.7264487234
 H         -0.9077110034        1.0306023514        2.7895324279
 O          2.3163130586        1.7044862278        4.9293022138
 H          2.0012599443        2.3846752891        4.2873100679
 H          1.8997696354        1.8911482624        5.7698022101
 O         -2.1872100336        0.3925927185        3.7765509839
 H         -2.6203097081        1.2205849698        4.0434866998
 H         -2.8638404314       -0.0997347212        3.2814805750
 O         -0.8323138112       -4.7955880074       -1.4860743835
 H         -0.7333726373       -4.8378723295       -0.4988167718
 H         -1.5626706194       -5.3839279634       -1.6984843296
 O          2.0654539144        5.3260583000       -0.6677664141
 H          2.2987455319        4.6112930861       -1.2792077288
 H          2.8976535338        5.6198982947       -0.2891308108
 O          4.0907907031       -2.8635508657        1.9861656659
 H          3.9944105501       -2.6387256821        2.9248921038
 H          4.8090560909       -2.2970306108        1.6674158503
 O          3.0776789542        3.1143408470       -2.1601235121
 H          2.8205552566        2.9087211502       -3.0756755428
 H          2.4816490921        2.5519620727       -1.5879082298
 O         -3.6185292207        3.1613011391       -2.7354919785
 H         -2.8187850870        3.6298494169       -3.0253102891
 H         -3.7163478911        3.4445935546       -1.7939975661
 O         -2.8603658007       -2.7501349528       -0.5138541430
 H         -2.7942008510       -3.5548485200       -1.0511290215
 H         -2.3173583649       -2.8851314946        0.2833871204
 O          2.0691721812       -4.9062114623        2.0088781259
 H          2.0180979526       -4.2786614562        2.7776102041
 H          2.1645606165       -5.7726438735        2.4062591520
 O          4.8404696325        4.3319267273       -0.2664167886
 H          5.7278494002        3.9486890310       -0.2547483825
 H          4.3956288737        3.9840187753       -1.0517133168
 O         -7.1245528192       -0.0636726386       -1.5138963803
 H         -6.3135853562       -0.2661934546       -1.0039260519
 H         -6.9125301734        0.7269195296       -2.0312977978
 O         -5.3850700918       -3.6576248679        0.0043417374
 H         -5.9129186599       -3.3626725581       -0.7698316232
 H         -4.5394038236       -3.1754642137       -0.0669546736
 O         -0.2118446172       -1.5776147127        3.9935751885
 H         -0.6898574436       -2.0340199256        3.2720129077
 H         -0.8144768466       -0.8840387635        4.2909253609
 O         -1.4766313642       -2.5861627445       -3.0100862747
 H         -0.7113150332       -2.3931509407       -3.5617059426
 H         -1.2185671564       -3.3629640667       -2.4844308307
 O         -3.8748235577       -1.1765326089        2.1896417792
 H         -4.1833749153       -0.9007035435        1.3097717350
 H         -4.6094662467       -1.7048712808        2.5408724266
 O         -1.5408204430       -2.4140033698        1.8176188206
 H         -0.9847639565       -1.7443348495        1.3206241157
 H         -2.3930484754       -1.9805774362        2.0374598320
 O          1.4786474373        3.1938417389        2.9004020314
 H          2.3284434001        3.1081558286        2.4300407108
 H          0.8921509191        2.4740697854        2.5726298869
 O         -6.2754754644        2.4352098662       -2.5725431242
 H         -6.8440945154        2.9811075961       -3.1174451873
 H         -5.3626170024        2.7252117209       -2.7538292998
 O          1.6424016328        1.5343141767       -0.6963553834
 H          1.2794448353        0.8477235604       -1.3009968383
 H          2.2426757245        1.0652408331       -0.0764861509
 O         -8.5416989260        0.8721721590        0.5402093434
 H         -8.1302027650        0.4411637936       -0.2450747418
 H         -9.4900831435        0.7774729229        0.4534240317
 O          1.8091235929       -3.4720239705        4.2005198166
 H          2.5868888202       -2.9415189783        4.4341098680
 H          1.0536078105       -2.8717477721        4.2635515305
 O         -1.0097572733        4.0163819618       -2.9297911635
 H         -0.6335198836        4.8965472314       -2.9310023348
 H         -0.8699385495        3.6551658418       -2.0076943359
 O          2.1439204348       -2.1249174776        0.3120937015
 H          1.9359686404       -2.8692637402       -0.2788813412
 H          2.7818148695       -2.4409716998        0.9914305547
 O          2.4386149336        2.0821086775       -4.6230965259
 H          2.7776106894        2.3813125541       -5.4664428693
 H          2.7375227293        1.1356913390       -4.5176924786
 O          3.9069032758        2.8678467455        1.7620878253
 H          4.7067850290        2.5985371657        2.2411508483
 H          4.1987041048        3.4936451465        1.0625586791
 O          3.7981264169       -4.9057044817       -0.1274540917
 H          3.3174213106       -4.7080242989        0.7039053818
 H          4.4145660782       -5.6086449894        0.0772378235
 O          2.0139655419       -0.3339931458        3.0090700307
 H          2.1814255135        0.2920168586        3.7253639607
 H          1.2307819953       -0.8402569555        3.2843474551
 O          6.8190017883        2.3412663576       -0.0797928939
 H          6.1262485237        1.8891918046       -0.6126056053
 H          7.6178593745        1.8290880615       -0.2506454905
 O         -3.9733660488        3.9520441767       -0.2431680879
 H         -4.8560452316        3.8200134340        0.1151719977
 H         -3.3341406116        3.7446051356        0.4635432920
 O         -2.1898587579        3.4659198935        1.7631565312
 H         -1.5929373882        4.2262209820        1.7690663742
 H         -2.6045110672        3.3928324519        2.6388115716
 O         -3.5547660000        2.7599718823        4.0268291121
 H         -4.0386543540        3.1772466221        4.7392223171
 H         -4.2310023424        2.4115744721        3.3861937406
 O          4.9646219125        1.2568521245       -1.6734483704
 H          5.3828059491        0.9800693969       -2.5095907058
 H          4.3334083870        1.9712454078       -1.8983947864
 O          3.3288443903       -0.3639328917       -4.2940896230
 H          3.2120957549       -0.5627726979       -3.3400127127
 H          4.2883094842       -0.2489195155       -4.3954733138
 O         -0.4962381270       -4.8418778072        1.1070392057
 H          0.4393673108       -4.8712679619        1.3834081792
 H         -0.8700305237       -4.0513117079        1.5229609949
 O          8.0137057752       -0.1641029074       -0.3452828798
 H          7.1817915080       -0.4292091937        0.1117358897
 H          8.7343114831       -0.5870648085        0.1218348148
 O          3.4208560720        0.4011873147        0.9052845608
 H          3.6601103080        1.2970135856        1.2261770856
 H          2.9114903915       -0.0072695302        1.6387712013
 O          1.2098167484       -2.2216217962       -3.7812262510
 H          1.5490020424       -2.8404174188       -3.1095351799
 H          1.9645985249       -1.8857699941       -4.2769864804
 O          5.6944395080       -0.9973970611        0.7098554144
 H          5.5747795613       -1.6587479200       -0.0120591260
 H          4.8774798385       -0.4445024128        0.6881554648
 O          7.2170521144       -1.5422896553       -2.6079055667
 H          7.6136035043       -1.0322043701       -1.8780554764
 H          6.5730001964       -2.1418533202       -2.1981064730
 O          6.1217211701        1.3849573097        2.3585208529
 H          6.0787629468        0.4571757950        2.1015953548
 H          6.5006665204        1.8402336277        1.5780608778
 O         -6.4335435117       -2.7141378829       -2.2682538978
 H         -5.6171290864       -2.4037386149       -2.6931646895
 H         -6.9758098749       -1.9254553454       -2.1369977887
 O         -7.0274103232       -0.0536974316        2.7060624678
 H         -7.6592108521        0.2008037012        2.0159686160
 H         -6.8050973979       -0.9852091675        2.5608497434
 O         -2.7830976103        0.7817421703       -3.7092879049
 H         -3.1410431226        1.6437846718       -3.4112165877
 H         -1.9626560158        0.9916301044       -4.1765814104
 O         -6.1365337749       -2.6854116636        2.3520653836
 H         -6.4782794545       -3.3869204959        2.9058338702
 H         -5.9462855563       -3.0879292757        1.4680715591
 O         -0.2516745937        1.7693086195       -4.2326891975
 H          0.6603175521        1.9140790449       -4.5370999365
 H         -0.5230579102        2.6128398505       -3.8197997741
 O          4.7977297663        0.5047412807        4.7340815367
 H          5.3152629942        0.9257032327        4.0373963559
 H          3.9913213046        1.0312378443        4.8502785814
 O          5.9792802122        0.2686892615       -3.9973780750
 H          6.4538308640       -0.4795845008       -3.5315292858
 H          6.6126461725        0.6366506674       -4.6132467713
 O          1.7596879555       -3.9271622733       -1.7093232869
 H          0.9013649117       -4.3805162576       -1.6844850633
 H          2.4347752293       -4.5434725459       -1.3951633275
 O         -0.5868747787        3.0182451244       -0.5686657738
 H         -0.4271728932        3.7446280346        0.0647855940
 H          0.2185346693        2.4688532780       -0.5463821470
