  384
       -651.85067000
 O          3.5584151778        3.1829844951        0.1148445897
 H          3.5009652990        2.8678316903       -0.8034308263
 H          4.1776554675        2.5529393630        0.5419074031
 O         -6.4478922566        3.7583598031       -3.5970789905
 H         -6.4602533255        4.7170374943       -3.5705256101
 H         -5.7933274249        3.5311549915       -4.2921104179
 O          3.6104378462       -4.0689961509        2.5596442225
 H          2.9418790297       -3.6410008000        1.9880069828
 H          3.5644577466       -3.6797915897        3.4505062751
 O          1.0444690648        1.6116273158       -4.2908861022
 H          0.3504967071        1.4085743871       -3.6422213424
 H          0.7803064280        2.4805318897       -4.6491919488
 O          3.0053487241       -0.2530456773       -2.8605840566
 H          2.9244900893       -0.2608298109       -3.8341973602
 H          2.5413237085       -1.0338076289       -2.5010866088
 O          0.9362401805       -5.2011192027        3.1302460673
 H          1.4258416157       -5.4207089958        2.3141965791
 H          0.0728542727       -5.6253570493        3.0213557472
 O         -1.0214674201        1.6529671112       -2.5893115951
 H         -1.9422371344        1.9442730669       -2.7088352610
 H         -0.9455313581        1.3773457992       -1.6194569890
 O          0.0838366258        3.9249981479        0.5168069087
 H          0.5135736772        3.8465323509       -0.3572218853
 H          0.4577897030        3.1874781845        1.0390626141
 O         -0.8573587914        5.9971151894        3.5121733115
 H         -1.1804066756        6.1528353211        2.6034056608
 H          0.0170245558        6.4155269717        3.5253289503
 O          0.9390689001        3.4563382772       -1.9660477305
 H          0.1651595908        2.9694394300       -2.3117822246
 H          0.9303777196        4.3718828932       -2.3086276358
 O         -6.9321556034        0.7322432832       -0.2263667747
 H         -6.4327576369        1.5479719231       -0.4309749314
 H         -7.8438932819        1.0172094855       -0.0001074328
 O         -1.8029782603       -4.0225147129       -3.2449507964
 H         -1.5311882138       -3.8113524749       -4.1554925346
 H         -2.3308308589       -3.2529844180       -2.9420065014
 O          3.9681621256       -0.4453187685        5.7445449010
 H          4.4228880008        0.2405228481        6.2347371266
 H          4.4121652164       -0.4748925981        4.8651732535
 O         -3.4636938135       -2.0025400315       -2.7367612751
 H         -3.9540663632       -1.7006592722       -1.9421860599
 H         -4.1503625337       -2.2571483590       -3.3999564171
 O          5.6250978757        0.0983678610       -2.5224719207
 H          4.6595958561       -0.0802257031       -2.5323355674
 H          6.0141756981       -0.4654034253       -1.8169703186
 O          2.6363451750        3.9951256985        2.5073876761
 H          3.5207741455        4.4256737350        2.6424835287
 H          2.6733287718        3.6514973027        1.5944575810
 O         -2.5304768873       -0.4579881523        1.9912630482
 H         -2.2896244357       -1.0753959912        1.2796802717
 H         -1.7364867693       -0.3535458107        2.5415094385
 O          1.7517965770        6.5100531941        2.8201295495
 H          2.5394308276        6.9282469166        3.1703752298
 H          1.9908229333        5.5620879097        2.7011101388
 O         -1.3305902898       -3.4862260268       -5.8721556618
 H         -1.5920228459       -2.5927139131       -6.2190266103
 H         -1.9150689283       -4.1206589056       -6.2874575542
 O         -0.0254537879        2.4530426794        5.9834585547
 H          0.1577186697        2.7547309153        5.0776638845
 H          0.3952646415        1.5881206544        6.0600652997
 O         -3.6217865201       -4.1690565349       -0.3796764800
 H         -3.1903026273       -3.3014395881       -0.4746887899
 H         -4.3151702523       -4.2495397202       -1.0577373441
 O         -7.6454674975        0.7451294562        4.2917196593
 H         -6.7277003357        0.8322148266        4.5897161336
 H         -7.8933693183        1.5915846607        3.8914473832
 O         -9.3578198848       -1.9628438004        2.4215396761
 H         -9.7153105102       -1.6315613658        3.2451091124
 H         -8.5084951788       -1.4738619214        2.2844849204
 O          0.2887031221       -2.6301045546        3.4642382447
 H          0.2083002747       -2.5607215087        4.4392445435
 H          0.6000687191       -3.5455973293        3.2924334336
 O         -4.2365651176       -1.7632333125        4.8511163790
 H         -4.5861739229       -0.8997319017        4.5442613456
 H         -3.5505327486       -2.0271722462        4.2054581690
 O         -3.6668512303        2.5116123927       -2.8049006578
 H         -4.1399361080        2.4492334697       -1.9588056845
 H         -4.1957421729        1.9848378234       -3.4284795472
 O         -1.9982720173       -1.9954408308       -0.2589343221
 H         -1.3890254225       -2.6597076782        0.1366382049
 H         -1.6657454348       -1.8214586840       -1.1519635217
 O         -0.6721815094       -1.2606462577       -2.6622748817
 H         -0.8539515531       -0.3158449668       -2.7642681014
 H         -0.2794978939       -1.5626980690       -3.5032237432
 O          7.3011144919       -0.0857823565        1.7887929797
 H          7.6534170239        0.7269135084        1.3578380963
 H          6.3814011736        0.1272316716        2.0279934981
 O          4.1860897895       -0.9851736443        0.1917039915
 H          4.7087336882       -1.6051755714        0.7248962386
 H          4.2106974169       -1.3714253692       -0.6952617941
 O         -9.8615356181       -1.1675362555       -0.1753134472
 H         -8.9425236761       -1.4252280640       -0.3754383459
 H        -10.0133500204       -1.5367682591        0.7078410736
 O         -8.6185331327        2.1183807121       -3.3896261894
 H         -8.2189431083        1.2551078328       -3.1808111449
 H         -7.8721960614        2.7059845134       -3.5949883793
 O         -1.4210161265        4.7952631795       -2.8306016636
 H         -1.6662234628        4.1810545924       -2.1145132968
 H         -2.2739206605        5.1316864611       -3.1602479251
 O         -2.4469118207        1.5458016375        4.5937271290
 H         -2.2821560386        0.9322560126        5.3439310978
 H         -2.3755971488        2.4533414251        4.9381036777
 O         -3.3738172507        5.8316149773       -0.6269172558
 H         -3.0502005974        4.8963863072       -0.6018544119
 H         -2.7011730753        6.3080525016       -0.1186975146
 O          9.5576525941        1.7737861262       -1.8408844965
 H          8.9214225245        1.5271866445       -2.5596439219
 H         10.3017579876        2.1903033627       -2.2730264423
 O          6.9465699303        4.4685597544       -3.0356772601
 H          7.4712875528        5.2079803691       -2.7324079078
 H          6.0031725595        4.7527544739       -3.0168682165
 O         -3.9809190509       -4.7767146880        2.2044697989
 H         -4.6979415710       -4.3116502910        2.6634046491
 H         -3.9720630482       -4.4531136463        1.2796372489
 O         -0.0559231770       -5.1857209719       -1.6164010519
 H          0.7968756125       -5.2081294308       -2.0783923644
 H         -0.6908535882       -4.7668480731       -2.2382973204
 O          3.3651943554       -3.0273949435       -4.3222824735
 H          4.0404437616       -2.4909575943       -4.7680313486
 H          2.4904093825       -2.6522982307       -4.5330526055
 O          1.9839740523       -2.7989116192        0.8566507313
 H          2.1099892788       -2.6097232726       -0.0866444439
 H          1.0889185447       -3.1784114426        0.9361402725
 O          2.4519745505       -4.9147290183       -2.5974515057
 H          2.9022436632       -4.5825137012       -3.3857202861
 H          3.1309220901       -5.0243121918       -1.9037716451
 O          3.2474192983        2.3618569322       -2.4717947102
 H          2.3356478882        2.7341632201       -2.4248291287
 H          3.1203024118        1.3925297003       -2.5171695233
 O          3.9391848984        2.6388160769       -5.0515218267
 H          3.7072736471        2.5029047747       -4.1050089181
 H          3.4502495086        3.4228152539       -5.3186830751
 O          4.3507181941        4.8888082141       -2.8417580620
 H          3.7511543978        5.0817860836       -3.5776479446
 H          4.1270828709        3.9845798162       -2.5659619584
 O         -4.1064053854       -5.1799735652       -4.2513252801
 H         -4.6652743937       -5.3596908958       -3.4794362706
 H         -3.2378930987       -4.9494447247       -3.8765986474
 O         -2.3511453419       -3.7839637934        5.9242754876
 H         -3.1432499435       -3.3844377150        6.2866295388
 H         -2.3703126079       -3.5953833411        4.9613869850
 O         -1.9592443127        2.5307058074        2.0645106445
 H         -1.1533146666        2.8776998353        2.5002057662
 H         -2.3058706815        1.8681347726        2.6742293201
 O          0.7965854036       -2.1731325828       -4.7424358046
 H          0.8199044801       -1.3965409945       -5.3500727016
 H          0.2631847863       -2.8438563796       -5.1878602078
 O         -9.5361051675        3.3765607466       -1.2838347325
 H         -9.2022404321        2.8924802505       -2.0874679870
 H        -10.3619325263        3.7853047485       -1.5405237473
 O          6.5369680378        3.1694793100        2.4860257160
 H          5.9425129382        2.5319530726        2.0509613982
 H          7.3541430149        3.1048235600        1.9769899209
 O         -8.1085678895        2.7259191985        2.4252792327
 H         -8.2362806088        3.6151232112        2.0251550755
 H         -8.6685441966        2.1437183847        1.8824606550
 O         -2.7746704989       -0.0352401366       -4.3262788537
 H         -2.8212505042       -0.7595966239       -3.6584861320
 H         -3.7080936208        0.1973077345       -4.4641431064
 O          2.2552446517        5.0647099165       -4.6433686069
 H          1.8730315085        5.6473030554       -3.9686225653
 H          1.4808339759        4.6436040939       -5.0427198377
 O          5.6883407511       -2.7717482934        1.6236088845
 H          4.9487760846       -3.3724409849        1.8731626824
 H          6.4920801514       -3.2342485624        1.9176735433
 O          6.0134471453        2.4981014129       -1.2663520800
 H          5.8091297330        1.6690730435       -1.7361944782
 H          6.4357574959        3.0881696938       -1.9060299662
 O          2.2914554012       -0.9676447299        2.7564430466
 H          1.5721618582       -1.4634288703        3.1901271102
 H          2.3526446408       -1.4057216023        1.8876801918
 O         -3.9192805758        4.1847294118        2.7519540842
 H         -3.7119094957        4.3541701097        3.6746068720
 H         -3.1433915399        3.6903633239        2.3920091556
 O          0.7822395886       -0.0267718920       -6.2956605221
 H          1.6893680503       -0.0907566279       -6.6145936843
 H          0.8519848031        0.6265624318       -5.5460028035
 O         -2.3461429018       -2.9233655171        3.3656342759
 H         -2.7482779152       -3.6005229061        2.7938470716
 H         -1.3886557835       -2.8323893162        3.1766778308
 O          4.7112628142       -2.5606783820       -2.0030340798
 H          4.1174551901       -2.7084195904       -2.7605532161
 H          5.6071379513       -2.7472887462       -2.3529670137
 O          6.2082639814       -5.7394421843        1.0532443958
 H          5.5056020909       -6.2769031011        1.4818004693
 H          6.7428934777       -5.4078846336        1.7879775505
 O          6.7313679170       -2.8394182197        5.0220692161
 H          7.1363768141       -3.0417140559        5.8647622551
 H          6.9438912504       -1.8778303104        4.8403963019
 O          1.2428779683       -0.1444614448        5.5529181632
 H          2.2163257736       -0.1864876788        5.5993087903
 H          0.9151636109       -0.9658854785        5.9435425773
 O          3.3958506624       -0.0094506348       -5.5717389154
 H          4.2590971352       -0.4412784884       -5.5944011507
 H          3.5736663908        0.9461313798       -5.5112629183
 O          4.8842433669        5.3292800773        2.5137135994
 H          5.5839765837        4.6494976495        2.5553986754
 H          4.8616554572        5.6450951221        1.5984841740
 O          0.1120830156        3.5003586914        3.4519414246
 H         -0.2373904185        4.4137766185        3.5098691407
 H          1.0140753775        3.5734497076        3.1097461416
 O         -8.3150147613        4.8514506932        0.8425744086
 H         -8.6467165780        4.4079222967        0.0483078887
 H         -7.3804320344        5.0605006792        0.6922198828
 O          1.7294101380        6.8119271182        0.0656441291
 H          2.6442095955        6.4943174383       -0.0806185486
 H          1.6374542526        6.8030625413        1.0326666727
 O          7.0926863007       -3.1688393957       -3.0913571567
 H          7.8545233600       -2.5952548848       -3.3410372840
 H          7.4054912790       -3.6707471363       -2.3276209034
 O         -5.2864759226        0.9482647229       -4.3513140165
 H         -5.9497144648        0.5228576486       -3.7588926040
 H         -5.7529036765        1.2801712819       -5.1179418173
 O         -5.7007225133        2.9610570227       -1.0351377044
 H         -6.0980407405        3.2752405831       -1.8625022643
 H         -5.6866626323        3.7081404166       -0.4026079332
 O         -5.8809616511       -3.6484976160        3.9301911436
 H         -6.0762064467       -4.2386385014        4.6565597102
 H         -5.3449249771       -2.9039807003        4.2964307001
 O          5.7554297097        1.7503512642        4.8108526749
 H          6.1869736091        2.3756952449        4.2125850665
 H          4.8619499426        1.6350044766        4.4476529226
 O          4.1149523799       -4.6821509630       -0.4902321817
 H          4.8776511424       -5.0430185424       -0.0126598943
 H          4.3973877643       -3.8240019524       -0.8706104332
 O         -4.9181492743        0.6811290897        4.0703003343
 H         -4.0510951494        1.0582773536        4.3163991861
 H         -5.1392494715        1.0836490450        3.2038847837
 O         -4.8417507445       -1.1566681182       -0.6438402139
 H         -4.5814461130       -0.2282175589       -0.4935955665
 H         -4.6761014217       -1.6133689849        0.2178743717
 O          9.1077795054       -2.2422583882        1.3430833432
 H          9.6057539279       -1.8696900346        0.5990520176
 H          8.5165013690       -1.5286542683        1.6266127229
 O          4.9136153162       -0.8131331654        3.2750632652
 H          5.3411059921       -1.5791241979        2.8502134872
 H          3.9674819677       -0.8960227598        3.0496979346
 O          4.8915695940        1.2837931747        1.3997773590
 H          4.6477272345        0.5011995259        0.8601038550
 H          4.3345657460        1.2365971348        2.2094727833
 O          9.5875812547       -0.8715766646       -1.0274871993
 H          8.6091395477       -0.9572170076       -0.9671978671
 H          9.7499641674        0.0718439981       -1.1774602607
 O          4.2034546426        5.7177084652       -0.1960456084
 H          4.3928291047        5.7529087108       -1.1426768981
 H          3.9762827206        4.7674811757       -0.0438330033
 O          7.8958156201        0.9588896077       -3.7378374184
 H          7.5765643585        1.5916639980       -4.4200797508
 H          7.0874939693        0.6466831234       -3.2985620017
 O         -4.0274968831        5.1895051235       -3.2350647783
 H         -3.9822847765        4.2226152057       -3.0571777629
 H         -4.0222109384        5.6160501123       -2.3656305928
 O          3.9940527335       -3.1182232516        5.0658221655
 H          3.7978321890       -2.2403495005        5.4244188200
 H          4.9664923721       -3.1605650537        5.0331675306
 O          4.0685935443       -6.7381752170        2.3038008713
 H          3.8725891943       -5.8202724027        2.5701149064
 H          3.3393396439       -6.9791289949        1.7243212944
 O         -1.5156340357       -5.8903457043        2.1193229831
 H         -1.6821959637       -6.3538348236        1.2664485537
 H         -2.4030078711       -5.6591923089        2.4298418221
 O         -0.4568007639       -3.8850570943        0.6873863141
 H         -0.2928022819       -4.3644493696       -0.1513013953
 H         -0.8345181013       -4.5556760896        1.2980934222
 O         -4.5514928239        3.5794278417       -5.5273851991
 H         -4.2281250177        4.4338042943       -5.2251379597
 H         -3.7573594198        3.0266507320       -5.6351680392
 O         -5.5492699822        5.0618340865        0.6433405583
 H         -5.1358328161        4.8577100963        1.4947464743
 H         -4.8441702384        5.5335273250        0.1489159293
 O          8.0056991229        2.0966573849        0.4373858211
 H          7.1959823895        2.2356329740       -0.1131355679
 H          8.7194631775        2.0224865314       -0.2095748721
 O         -2.1991675532        4.1825160486        5.3171103546
 H         -1.4982462804        3.8587082623        5.8993357301
 H         -1.8094702022        4.9125537280        4.8166726343
 O         -5.5641844809        2.1747868690        1.9740390447
 H         -6.5189005388        2.3882401332        2.0933882841
 H         -5.0660270232        2.9485209067        2.2943629047
 O         -2.1740909838       -0.4995953174        6.2612581488
 H         -1.3979377096       -1.0669166711        6.2735898541
 H         -2.9164548300       -1.0295415529        5.9240956322
 O         -7.1314927770       -0.0839099247       -2.7598180714
 H         -7.2466145260       -1.0361388796       -2.8704148830
 H         -6.9979184209        0.0907696606       -1.7964516376
 O         -6.2807709403       -5.9072776769        0.3693998395
 H         -6.7819617448       -5.2231230142        0.8439011154
 H         -5.4554023635       -6.0178286930        0.8516150418
 O          7.4520637199       -0.3741912770        4.5643737749
 H          7.5739044628       -0.3128043698        3.6042044759
 H          6.8206356997        0.3429913641        4.7767908652
 O          3.2994119948        1.5086608266        3.5384388958
 H          2.8594727082        2.3240963689        3.2508922847
 H          2.6990854034        0.7669595669        3.3642877345
 O         -0.2041170164        3.8537211720       -5.0528688446
 H         -0.6205700218        4.2243911320       -4.2469358353
 H         -0.9084329355        3.3389813441       -5.4800493470
 O         -7.4387643059       -3.7935388013        1.6844942305
 H         -6.8359136584       -3.6354980506        2.4323960131
 H         -8.2977899530       -3.4478076072        1.9680357234
 O         -5.6528403963       -4.8507181479       -2.0087432008
 H         -6.3768108983       -4.2908972595       -2.3180141086
 H         -5.9777268116       -5.3580992064       -1.2348134982
 O          1.7853263318       -4.5955515222        5.7424748579
 H          2.6638131589       -4.2102954444        5.6000135803
 H          1.5269231355       -4.9868809775        4.8935385804
 O          1.7147041231       -2.3982557007       -1.8175845758
 H          1.9165874942       -3.2873316863       -2.1674625970
 H          0.8037986266       -2.1864623107       -2.0700338140
 O          0.9204852746        6.1010228989       -2.4507089204
 H         -0.0449585605        6.0371808886       -2.4976355528
 H          1.1574045269        6.4361174292       -1.5682012656
 O         -3.8065582762        1.2144270055        0.2037052599
 H         -4.5524559408        1.6237976681        0.6778571722
 H         -3.3120005404        0.7363211306        0.8934129625
 O         -2.1916132157        2.1259308693       -5.8122157720
 H         -2.1130819802        1.6151392668       -6.6208834019
 H         -2.2404534536        1.4705537473       -5.0897877480
 O         -1.0661941688        6.3200413287        0.8096709772
 H         -0.3794909150        6.9249643267        0.5163812434
 H         -0.6601342760        5.4303672350        0.7202863678
 O         -1.7942187219       -0.9970277636       -6.6105050531
 H         -2.1896574763       -0.6769987694       -5.7684892611
 H         -0.8994326619       -0.6274157841       -6.6484812920
 O         -9.4084357455        1.3399284806        0.5054837868
 H         -9.7579570632        0.4693129471        0.2012129398
 H         -9.6527509624        2.0240648723       -0.1409439238
 O         -7.5779637720       -2.9473405772       -2.8686252907
 H         -8.4916111732       -3.1600833204       -3.0566283710
 H         -7.5313484937       -2.7071450559       -1.8987764250
 O          5.6018915593       -1.4799512546       -4.8328017703
 H          5.6993397729       -0.9136172966       -4.0444888731
 H          6.2312700465       -2.1965724886       -4.7029442566
 O         -4.7468478401       -2.0527491491        1.8141654836
 H         -5.5824885167       -1.6172811299        2.0670231610
 H         -4.0244954182       -1.5029480817        2.1516777641
 O          9.1094936548       -1.5264042107       -3.6498069075
 H          9.4958409666       -1.4184917748       -2.7616907464
 H          8.7512203670       -0.6550680440       -3.8839980379
 O          0.0649835378       -2.6236375271        6.1345828323
 H         -0.7864903063       -3.0977594975        6.2310429044
 H          0.7395120918       -3.3446750260        6.1680731516
 O          7.7134145964       -4.1153073160        2.8202604574
 H          8.4701569237       -3.5927394130        2.5246564914
 H          7.4215920731       -3.7440083008        3.6747413583
 O          6.9548508067       -1.2232965148       -0.6522325521
 H          6.9182798020       -0.8942105754        0.2658896084
 H          6.9555298187       -2.1980287202       -0.5966455102
 O         -7.0355277813       -0.6913288538        2.1351585029
 H         -6.9517151086       -0.1199994317        1.3491341435
 H         -7.2147905711       -0.1246758088        2.9189787351
 O         -2.1675186939       -6.5125251502       -0.3665536063
 H         -2.7550660456       -5.7375966716       -0.4425198861
 H         -1.4141554940       -6.3207114844       -0.9383368472
 O          1.9297376035       -5.8516509287        0.6668650743
 H          2.6744641529       -5.3277212417        0.3168584034
 H          1.2847002073       -5.9266078967       -0.0391094000
 O          7.5814530043       -3.8515676559       -0.4493200392
 H          8.2564469039       -3.5559636586        0.1801524456
 H          7.1120155171       -4.5870806509       -0.0297075431
 O         -5.2333467502       -2.7589862023       -4.5293088564
 H         -6.0955082303       -2.8495739703       -4.1086456555
 H         -4.8728292748       -3.6701130724       -4.6140723857
 O         -2.3165573446        3.4183702728       -0.5921597385
 H         -2.8250182309        2.6467567520       -0.2806260993
 H         -1.5348043512        3.4959134368       -0.0106717264
 O          6.7103186550        2.7967922782       -5.2354755810
 H          6.8774434974        3.4996427081       -4.5907238856
 H          5.7443433262        2.6863954884       -5.2635393443
 O         -0.2831955104        0.3844981521        3.4003666775
 H         -0.9170992301        0.9509716170        3.8717876029
 H          0.3329903706        0.0839269306        4.0949730069
 O         -7.3195841285       -2.1504009479       -0.4430609988
 H         -7.2624984459       -2.7623575183        0.3194567800
 H         -6.4649053149       -1.6689102838       -0.4837520537
 O          1.2847692189        1.7651268707        1.6646486071
 H          1.5080007397        1.2369843450        0.8830340735
 H          0.8001488253        1.1744110323        2.2707306677
 O         -0.9467139131        0.9130234475       -0.0182129771
 H         -1.1962719940        1.3634959279        0.8032815229
 H         -0.3135981204        0.2249691540        0.1953011256
 O          1.6196067122        0.2965718966       -0.5474351394
 H          1.4392711098        0.6131802195       -1.4337127260
 H          2.4694991231       -0.1528216701       -0.5326034438
