  129
       -218.86019736
 O          6.4195067457       -1.4527837280       -1.5295058167
 H          5.9337441883       -1.7686309979       -0.7434221731
 H          7.0153260642       -2.1564503954       -1.7888923156
 O          3.4106929733       -3.4173496520       -3.2124745739
 H          3.7441814391       -2.5177683993       -3.3768578284
 H          2.7913542262       -3.6171834479       -3.9149747924
 O          2.3645434578        4.2972609425       -3.1291049834
 H          1.4061830057        4.2140869938       -2.9987837702
 H          2.6338520821        3.5953549002       -3.7338196601
 O         -0.0557261437        3.4995997091       -2.1380447647
 H         -0.4475205860        3.7389853436       -1.2923355349
 H          0.5190973865        2.7313625793       -1.9422817945
 O          3.6793891021        1.7281807021       -3.4168099651
 H          2.9829890597        1.6388900411       -2.7446861154
 H          4.4039950284        2.2458015109       -3.0174239435
 O         -4.7613344217        2.0194049251        3.1056156296
 H         -5.1750625700        2.5438053796        3.7923028300
 H         -5.0844938999        2.3576269007        2.2466037951
 O          6.9326609756        1.2150147401       -0.8837160795
 H          6.1379451571        1.2183476577       -0.3151529101
 H          6.9729760177        0.3154524035       -1.2370573768
 O         -5.7036126572        2.7317040925        0.6442365822
 H         -6.4366008188        3.3234497239        0.4677984253
 H         -5.9945971945        1.8413671013        0.3662075197
 O          0.1723331471       -3.2083855645       -0.8064671862
 H         -0.2440552773       -3.1005789354       -1.6944127072
 H         -0.4712721773       -3.7393213588       -0.3040760527
 O          3.5076534533        3.5989304676       -0.8520244166
 H          3.0227423146        3.8596521550       -1.6762809055
 H          4.4313813770        3.7684288337       -1.0851906499
 O         -1.9269641547       -0.2735020240       -4.0618698301
 H         -2.2152047476       -0.3310277819       -4.9731162882
 H         -2.0695755717        0.6611739741       -3.7973605642
 O         -1.0128380722       -3.2534021459        2.9881876717
 H         -0.3723628094       -2.5058893185        2.8339240308
 H         -0.5276026902       -3.9338981556        3.4541916976
 O         -4.2890348321       -4.7779327032        1.8361770897
 H         -3.4878802340       -4.6841787395        1.2664427679
 H         -4.3668760263       -5.7043805348        2.0643451938
 O          5.7895603554        3.1219909663       -2.3152097001
 H          6.3886613360        3.5789991684       -2.9049288658
 H          6.3230917188        2.4408405448       -1.8351577353
 O          1.7818826100        0.7886714430        0.9868579086
 H          1.6884960349        1.4329423296        1.7174837892
 H          2.4087674833        0.1133656231        1.3121650044
 O         -2.0214117650        1.7151697912        2.6535582064
 H         -2.1360048220        0.8242973815        2.2548805914
 H         -2.9052084140        1.9583004046        2.9636785959
 O          3.4163808525       -0.9934630737        2.2620726908
 H          3.8799147744       -0.2863864007        2.7348619920
 H          4.0731603200       -1.4531809469        1.7148529085
 O         -2.2223863131        2.2983291611       -3.3311054520
 H         -1.4065820723        2.7799534401       -3.1074387687
 H         -2.8352903037        2.5139776160       -2.6187167627
 O         -3.2523718403        2.8398184442       -0.7550741439
 H         -4.0196939218        3.0704611186       -0.2135221821
 H         -2.4532257954        3.0502254814       -0.2438367766
 O         -2.4726567772       -0.6276203703        1.4789724782
 H         -3.0516372757       -0.3491170978        0.7308172876
 H         -2.9374341493       -1.3009852083        2.0094226869
 O          4.3413708464       -0.8465340898       -3.2650669858
 H          5.2295567453       -0.9003128405       -2.8805736467
 H          4.1736352044        0.0914470694       -3.5117277267
 O          4.4881437954        1.2773799476        0.2423777579
 H          4.0392547327        2.0478647540       -0.1498874176
 H          4.0176549492        0.4843331656       -0.1049383334
 O         -5.5705888610       -0.6278143344        2.6725608301
 H         -4.8718288849       -1.2265745332        2.9793165970
 H         -5.3100262233        0.2540273237        2.9839057321
 O          1.6566665810        4.3044110932        0.9681291175
 H          1.6260789593        5.2606863029        0.9219676625
 H          2.3427270406        4.0211896421        0.3256055173
 O         -6.2571762985        0.1044588036        0.1577259601
 H         -6.1109993755       -0.2206759031        1.0709443087
 H         -6.4625524279       -0.6868832732       -0.3716098674
 O          5.1039690036       -2.5780958747        0.6609167841
 H          4.3245375881       -3.0111803904        0.2549298926
 H          5.5731115458       -3.2584966871        1.1457284209
 O          0.1134071506        0.7563457229        4.0941186882
 H          0.8106649381        1.4093097660        3.9412475954
 H         -0.6962928435        1.1590552475        3.7377673407
 O         -6.5443607973       -3.1754592563        1.4850833662
 H         -6.4291990798       -2.4287345070        2.0834592315
 H         -5.8231530932       -3.8008739277        1.6598130286
 O          2.8856032203       -3.4695433395       -0.5771553774
 H          1.9142597752       -3.5152583850       -0.5457135808
 H          3.1141095615       -3.6052218400       -1.5196799160
 O         -1.3675858094       -2.7258070016       -2.8938106494
 H         -2.2030030697       -2.8013202213       -2.4056517453
 H         -1.4431426217       -1.9017804075       -3.3995802932
 O         -6.2458397759       -2.3796897639       -0.9973984066
 H         -6.8805801468       -2.7935950539       -1.5823525638
 H         -6.4129603828       -2.7466689819       -0.0910086930
 O          0.6519309929       -1.3176580009        2.5501861727
 H          1.6095454194       -1.4341194384        2.5975040894
 H          0.4385190299       -0.5805525476        3.1748801084
 O         -3.7257156992        0.2212068399       -0.6542134107
 H         -3.4793479405        1.1553952250       -0.8172647847
 H         -4.6863574421        0.2249439454       -0.4574744145
 O         -3.5802471571       -2.4661331703        3.1236783662
 H         -3.9292353405       -3.3030599259        2.7714809541
 H         -2.6791635245       -2.6770228598        3.4215292693
 O         -2.0508470698       -4.0286838756        0.5868482879
 H         -2.5287923787       -3.3540271984        0.0632784125
 H         -1.7162738102       -3.6219974501        1.4106605672
 O          1.9749625654        2.5151714928        3.0228556751
 H          2.9132738127        2.2864303581        3.1405863724
 H          1.9326221341        3.3156978681        2.4764087985
 O         -3.4724806423       -2.4200113183       -1.0836897549
 H         -4.4197667272       -2.6200440248       -1.1519206532
 H         -3.4401540329       -1.4476919966       -1.0780587225
 O          3.1787698816       -0.7628621142       -0.8389607228
 H          3.0406796611       -1.6891008064       -0.5816138043
 H          3.5583773221       -0.7987166089       -1.7400757197
 O          4.5167826280        1.4941426566        2.8685813059
 H          5.3650748420        1.8158789051        3.1727895465
 H          4.5558974522        1.4652748626        1.8791825547
 O         -0.8599588745        3.0642275849        0.5952479410
 H         -0.0052329783        3.4624172921        0.8220889877
 H         -1.1832503886        2.6322887223        1.4094415084
 O          1.6601783381        1.5786721657       -1.6697388784
 H          1.7243455780        1.3483426358       -0.7245435174
 H          1.3406584898        0.7377919539       -2.0872187084
 O         -0.3215718226       -0.3806862357       -0.3559846503
 H          0.4125983357       -0.0553502020        0.1857816287
 H         -0.9273116840       -0.7806501120        0.2727866211
 O          0.8201688905       -0.6742837243       -2.7483707846
 H          0.5220919085       -0.9468299918       -1.8556815887
 H          0.0067216343       -0.4745933507       -3.2197338463
