  249
       -422.60755134
 O         -3.8172326534       -3.2445415183        1.1522442315
 H         -3.9243038195       -2.5003343793        1.7972944014
 H         -4.6704083604       -3.7069007663        1.1916010238
 O         -2.1048867059       -4.9749693031        2.5539456277
 H         -1.5427959743       -5.4458350397        1.9215211774
 H         -2.8036306409       -4.5344907770        2.0433007088
 O         -2.6302025186       -4.4636979871       -2.3689798862
 H         -2.2611554494       -4.0980532974       -1.5306995213
 H         -2.4178034634       -3.7989603230       -3.0359796681
 O         -2.2553522850       -0.5887285437        4.4103093259
 H         -1.4374697251       -0.1794864320        4.0861036630
 H         -2.7262824992        0.1442888482        4.8745669556
 O          2.5989160924        1.3128748476        2.8439543731
 H          3.2585055426        1.3516234835        3.5685051984
 H          2.1576177596        2.1917555965        2.8443794232
 O         -6.3911062391       -4.0641320874        1.6614007008
 H         -6.5388221442       -3.4015385553        2.3926576407
 H         -6.6995991578       -4.9070014387        1.9914916288
 O         -0.2866757167       -5.7609968167        0.5384087741
 H          0.6220601076       -5.8210963385        0.8684131665
 H         -0.2280106764       -5.9812742436       -0.4118902335
 O         -7.4850943119        3.2508715399       -0.8671154535
 H         -6.8397074222        2.9786737952       -1.5716600122
 H         -8.0913782781        3.8714258955       -1.2695513131
 O         -5.1833984808        0.1597390257        0.6066458860
 H         -5.3425266139       -0.6979445292        0.1851269852
 H         -6.0634571799        0.5705128313        0.6735032599
 O          3.1472642823       -1.2571795903       -0.4603482332
 H          3.5854985581       -1.8616988715        0.1745524164
 H          2.5024793725       -0.7436430097        0.0475553922
 O          4.2894563453        1.2394276723        4.9083894516
 H          4.8972491796        1.8625094355        4.4747489124
 H          4.6904956937        0.3551112676        4.7437535408
 O          2.9301611412        1.7225378276       -5.6193849146
 H          3.3782363540        1.9268021539       -6.4388159119
 H          3.5960400410        1.2813263310       -5.0266835019
 O          3.4326264371       -4.7426240131       -1.2696729780
 H          4.3630778302       -4.4984786963       -1.2236435745
 H          3.1663647119       -5.0720822763       -0.3837286039
 O         -7.6377412195        0.3311805300        3.1015170021
 H         -7.7771693015        0.5415851797        2.1569560873
 H         -8.3219954091        0.7855197723        3.5929783134
 O          4.8946095977        3.7828227063        0.6078793626
 H          4.1319631539        4.3387329215        0.3782301252
 H          5.3936465826        3.6006577775       -0.2058259532
 O          0.9571634588        6.6447108708        1.6838992265
 H          0.9906679096        6.4245945512        2.6162882546
 H          0.0129915730        6.5762445423        1.4200473147
 O         -0.0555515343       -2.0155691259       -5.1827771206
 H         -0.6013752180       -2.2660164098       -5.9280844319
 H          0.1386735553       -1.0468785000       -5.2965288532
 O         -1.3506386209       -2.0569392784       -2.8326148697
 H         -0.7527521906       -2.2818166226       -2.1099455739
 H         -0.8145728624       -2.0706243023       -3.6534282468
 O          1.5009663957        3.7195296419        2.7237515581
 H          0.6469397348        3.6162336572        2.2469409094
 H          2.0856808589        4.1827121926        2.1180344142
 O         -0.8229477614        3.5129784349        1.4592507476
 H         -0.7712396956        3.2473608162        0.5194050841
 H         -1.5926738066        3.0418896902        1.8336811930
 O         -3.7710945823        1.5788095270       -1.2720779864
 H         -4.1122404514        1.1221872729       -0.4792308696
 H         -3.0615967968        2.1982597166       -1.0142407258
 O         -4.0275944508        2.2102708749       -4.9340488261
 H         -4.7398434542        2.3798538714       -4.2996479920
 H         -3.5744612179        1.4206571419       -4.6127911138
 O         -5.7680277672        2.4186917571       -2.6889193968
 H         -6.0676440196        1.5069793313       -2.8753221128
 H         -4.9727690470        2.2387525944       -2.1195001989
 O         -1.0191828302        5.7094376390       -1.7966962687
 H         -1.4944196383        5.8305849898       -2.6219914694
 H         -0.0655059977        5.6973685632       -2.0064072767
 O         -1.4499713186       -3.4134471581       -0.2035501381
 H         -0.9453408363       -4.1741725116        0.1462678659
 H         -2.2305053878       -3.3268772781        0.3618670413
 O          4.1794577682       -4.3135693401        3.0188978951
 H          3.6201030549       -3.8625941358        3.6556645781
 H          4.3699413174       -3.6690212902        2.3026981447
 O          1.7156820995        0.3470650247        5.5477440893
 H          1.3489871755        0.8406436937        6.2815921786
 H          2.6273114790        0.6650178980        5.4244798003
 O         -3.4075888466        1.6457681947        5.2301908396
 H         -2.6835369004        2.2256298183        4.9476633801
 H         -4.1501015138        1.8311652451        4.6349495198
 O          1.5120186647       -0.8818036402       -2.8681869960
 H          1.7355078352       -1.0815251307       -3.7796682602
 H          1.4561209998       -1.7392907147       -2.4028632404
 O         -4.2494871906       -1.2276489078        2.7722081153
 H         -4.4707984548       -0.5071359566        2.1534073980
 H         -3.5240442735       -0.9282299166        3.3619722251
 O         -6.2942590922        3.9216937144        1.6310856654
 H         -6.7950069270        3.6772740229        0.8416403437
 H         -5.4559986094        4.2793798498        1.2875417704
 O         -0.0920993910       -5.5647536422       -2.1623473670
 H         -1.0173673327       -5.4175235172       -2.4140502074
 H          0.2891942534       -4.6797201719       -1.9852029740
 O          4.5529728715        0.6389901525       -3.8743279226
 H          4.4460872961       -0.3265937693       -3.8280290596
 H          3.9917235131        0.9874523925       -3.1359373680
 O         -0.7254150144        2.0759086940       -3.4479442697
 H         -1.1944791342        2.8730215157       -3.8076671315
 H         -1.4163727543        1.3780029151       -3.4288612233
 O          5.9644136452       -3.3646959907       -1.3381465986
 H          5.4655946240       -2.8989501855       -2.0366414016
 H          6.7805127732       -2.8488980385       -1.2011459179
 O         -5.2770656303       -3.6622963061       -2.4979230643
 H         -5.0670000157       -3.0590022443       -3.2342669996
 H         -4.4579251661       -4.1655117335       -2.3555387971
 O          3.9016093558        1.3020558551        0.5805410561
 H          3.3259627355        1.2570526223        1.3767402632
 H          4.2904084645        2.1995829669        0.6043248201
 O         -7.8070884896        0.9351623325        0.4898500295
 H         -7.7949350282        1.7991423438        0.0413301090
 H         -8.1173841592        0.2852622013       -0.1634831680
 O         -5.9848267340       -0.2474607225       -2.6968660480
 H         -5.2890304218       -0.6092736222       -2.1201961790
 H         -6.8324898997       -0.5128402483       -2.3137360440
 O         -2.2319069884        4.0971172912       -4.1901997296
 H         -2.7981088252        4.3731680280       -3.4412592679
 H         -2.8311950666        3.5493039963       -4.7318762226
 O         -1.5727619895        3.1478693425       -1.0912385899
 H         -1.5424854567        4.0942080738       -1.3217056587
 H         -1.0742115213        2.7017079986       -1.7995059307
 O         -3.9844849267        4.7428456206       -2.2375031623
 H         -3.9328517842        4.6520336021       -1.2649402658
 H         -4.7786533980        4.2775605846       -2.5099636479
 O          7.7419121075       -1.4290637791       -0.5268803479
 H          6.9028109692       -0.9295604891       -0.4982740538
 H          8.0073619699       -1.5652205626        0.3998890412
 O          2.4505736853       -3.1545355412       -4.5624293974
 H          1.5621613174       -2.9175131929       -4.8602567506
 H          2.4134725307       -4.1057457459       -4.3226255091
 O          6.0413887447        2.4612754870       -1.5334057259
 H          5.8388414283        2.5659228891       -2.4646001511
 H          5.7397975685        1.5521101321       -1.3064576518
 O          0.0579844414        0.4550191990        3.3410042696
 H          0.7358328474        0.4166025213        4.0380161387
 H          0.5300273772        0.4241073245        2.4839325793
 O          1.2210683032       -3.2423177096       -1.5240749000
 H          2.0820291690       -3.7093122106       -1.5744619775
 H          1.0879719591       -3.0936913460       -0.5728815064
 O          2.4522831152        5.0395716124        0.1430429173
 H          1.9703650251        5.6988642511        0.6890033000
 H          2.2754047935        5.3077667636       -0.7752850500
 O         -1.0935262223        2.7859292256        4.2001704885
 H         -0.6975385796        1.9816165199        3.8169937947
 H         -0.4039490635        3.4503708384        4.1867132455
 O         -6.2657184958       -2.3349350228       -0.4302542302
 H         -5.8900285516       -2.8345163477       -1.2003558072
 H         -6.4348943329       -2.9902505226        0.2624184029
 O          5.8295552899       -0.2727969377        1.5598975060
 H          6.6400978454        0.2633576217        1.6851302143
 H          5.1487876604        0.3225301950        1.1787372209
 O         -6.6176678001       -2.2410961180        3.5234465468
 H         -5.6999039533       -1.9124014299        3.4519308622
 H         -7.1560499297       -1.4459570585        3.4019604169
 O          6.8045322341       -3.1803180485        3.5897574642
 H          6.1833596208       -3.8784021958        3.3470797560
 H          6.2469053622       -2.4557337491        3.9348453663
 O          2.8846492806        1.2672371585       -1.9343836437
 H          3.2587125622        1.1539169729       -1.0375916840
 H          2.3504936157        0.4770980532       -2.1424172363
 O          2.4119561990       -5.2900951114        1.1575468798
 H          3.0784887328       -5.2580744511        1.8644033263
 H          1.9503430553       -4.4232780629        1.2154131641
 O          2.2847549448       -5.6676445842       -3.6207096668
 H          2.8419811645       -5.5379412191       -2.8375770458
 H          1.4016432416       -5.8580130642       -3.2700597526
 O         -2.6706526995        0.2527646185       -3.3623482155
 H         -3.1464451062        0.5801341983       -2.5682742922
 H         -2.1581824674       -0.5299357442       -3.0891690169
 O          4.2282607149       -1.9561309538       -2.9591078265
 H          3.6493703312       -1.7870700057       -2.1948033933
 H          3.6817011312       -2.4637499395       -3.5913347621
 O          5.4867130680       -0.1284637488       -1.2090002500
 H          5.5255340840       -0.4213705556       -2.1244546288
 H          4.6254418985       -0.4408115429       -0.8534011244
 O          8.5137148177        1.3069060160       -0.6219654877
 H          8.3891490494        0.3669254990       -0.8337909973
 H          7.7582140330        1.7866528773       -0.9931430469
 O         -8.2979018855       -1.0234982611       -1.3371258213
 H         -7.5958253487       -1.6053085924       -0.9292251510
 H         -9.0075028226       -1.5969107010       -1.6233519288
 O          5.1186236423       -1.0931499346        3.9510638475
 H          4.2534726038       -1.3925526721        3.6080347006
 H          5.5287858123       -0.6988249236        3.1452576310
 O          4.8243508032       -2.6974391833        0.9870223909
 H          5.3097595302       -1.8975665071        1.2642155931
 H          5.3052850853       -3.0567610501        0.2115027442
 O         -0.8145590923       -2.7683456677        3.2719392771
 H         -1.4482373804       -2.1789623638        3.7016321190
 H         -1.2709370993       -3.6327264714        3.1575049269
 O         -3.7592735693       -1.5181930767       -1.2837870249
 H         -3.0741873537       -1.9124465020       -1.8327441991
 H         -3.8670480123       -2.1058812070       -0.5254618878
 O          1.6421034854        5.5960786533       -2.4209571957
 H          2.0079834065        6.2352091975       -3.0317072368
 H          1.7101637078        4.7126076451       -2.8628645405
 O          0.4455945036        0.5405918585       -5.4499390177
 H          0.0527441321        1.0814342533       -4.7420776593
 H          1.3381551578        0.8959625250       -5.5865475831
 O          1.1434541331        2.6865016039       -0.4261260179
 H          1.5939563419        3.4943709791       -0.1326054897
 H          1.6480913661        2.3764955611       -1.1982084875
 O         -3.1528246017        2.1799306867        1.7153113284
 H         -3.9052492332        2.0989481492        2.3268941902
 H         -2.8733460636        1.2575313422        1.5151287605
 O          1.7536340529        3.2721312342       -3.6022713226
 H          2.2136781610        2.8342493967       -4.3318539891
 H          0.9366670158        2.7724091125       -3.4610035500
 O         -4.4829467908       -1.7766603074       -4.3914614821
 H         -5.2263684910       -1.2143205836       -4.1268081400
 H         -3.7085008169       -1.2171332530       -4.2509890133
 O         -5.3705242627        1.9710253606        3.2505123832
 H         -5.7806297753        2.7246946138        2.7746436692
 H         -6.0458453409        1.2759800331        3.2794557763
 O          2.7546410732       -1.4410757203        2.6985074419
 H          2.5792751305       -0.4898720641        2.6249378806
 H          2.2655781504       -1.7656456601        3.4969833491
 O          5.8164961986        2.5152052411        3.0272583902
 H          5.5643671958        3.0888946507        2.2929866324
 H          6.6836767787        2.1531452860        2.8035371239
 O          8.0754217413        1.0729217087        1.9950803296
 H          8.3533230927        1.2814849187        1.0723150125
 H          8.5108892588        0.2407257598        2.2231104434
 O          8.5094857957       -1.7494052943        2.1032403387
 H          7.8572544923       -2.2781997170        2.6209186796
 H          9.3489204816       -2.1957339095        2.2127662995
 O          1.4331550683       -2.3726434488        4.7384098826
 H          1.3217149334       -1.5797998601        5.2770806640
 H          0.5684798041       -2.5747335215        4.3259942447
 O         -3.8723821689        4.4675617576        0.4653850276
 H         -3.2430487273        5.1463726114        0.7566827052
 H         -3.5499863215        3.6155780696        0.8265200126
 O         -1.5549358475        6.0013396895        0.9100666529
 H         -1.4272322660        6.0580901756       -0.0495755244
 H         -1.2716350652        5.0915247384        1.1660722969
 O          1.1171639611       -2.9623042362        1.2705608143
 H          0.3740249534       -2.9483746516        1.8950718660
 H          1.7936884220       -2.3715017033        1.6687854540
 O         -1.8762140792       -0.3172193717        1.0844521663
 H         -2.3758242778       -0.7957222775        0.4167482944
 H         -1.5213969393       -0.9517792909        1.7149696448
 O          1.0325657947        0.2096906365        0.7260787948
 H          1.1184733285        1.1219014913        0.3804906362
 H          0.1565705318       -0.0840266539        0.4575402270
 O          4.4658836421        4.0198520253       -3.2737681029
 H          3.6193691734        3.5778978421       -3.1313639215
 H          4.7014579199        4.4532596174       -2.4531325471
