  95
       -150.34295261
 H         -2.1298673950       -1.0816319555        2.3609069150
 C         -2.6662476554       -1.4424157527        1.4581923350
 C         -0.5127771287       -2.1581008283        0.5677108128
 C          0.6265642650       -1.2339393502        1.0166018329
 C         -3.8824510182       -0.6085156321        1.2765082259
 H         -0.2130926683       -2.6646527127       -0.3556721766
 H          0.2188526594       -0.4516413100        1.6597120632
 H         -4.7844610075       -0.9682375811        1.7484573390
 H         -2.9511577782       -2.4830636300        1.6439857914
 H         -0.6950603318       -2.9268739488        1.3180556753
 H          1.3737057748       -1.7925759974        1.5764596941
 N         -1.7615224822       -1.4429848289        0.3101944688
 H         -1.5496016101       -0.4817770365        0.0423738812
 C         -3.7729881141        0.8573367705        1.0713016804
 H         -4.6423224952        1.2453035454        0.5439669499
 H         -2.8758989757        1.1134716329        0.5183640830
 H         -3.7303918735        1.3818645631        2.0328302940
 N          1.2985384684       -0.5828007557       -0.1028315202
 H          0.5972724896       -0.1709112813       -0.7088030021
 H          1.7997297487       -1.2770974756       -0.6451948033
 O          2.4105162291       -2.8666105447       -1.8127542982
 H          2.8510890229       -3.5776750153       -2.2806644131
 H          1.5654810021       -2.7005002445       -2.3153609319
 O          0.2459743727       -2.2984034716       -3.1580662515
 H          0.3257819341       -1.3374228575       -3.2983818989
 H         -0.6911882372       -2.4421774377       -2.9222209116
 O          2.6297044345       -3.9084437350        0.8354965340
 H          2.4668950851       -3.5722937822       -0.0577828578
 H          3.3112803892       -3.3170264448        1.2185349732
 O          0.4235538915        0.4403846385       -3.1139341590
 H          0.1287811810        0.9589370725       -3.8702489605
 H         -0.2031286039        0.6908065374       -2.3900879343
 O         -2.3579045722       -2.0710087525       -2.3250514852
 H         -2.3828257132       -1.2306669085       -2.8255008233
 H         -2.1297012523       -1.8485959005       -1.3991039599
 O         -2.8733427625        4.1107536898        0.6361557820
 H         -2.3012314965        3.6227210774        1.2508824167
 H         -2.4290710049        4.9408966612        0.4548279801
 O          4.2761014986       -2.0752977228        1.9310446266
 H          4.5898957230       -1.3667575140        1.3436633928
 H          3.8770413114       -1.6330507174        2.6947725264
 O          0.5573234034       -1.9868952193        4.2944879227
 H          0.6316506782       -2.7573276120        3.6789405564
 H          0.1510463397       -2.3225289999        5.0950192717
 O         -4.8053388294       -1.3722857108       -1.2673065674
 H         -4.0836012463       -1.8167306383       -1.7525190474
 H         -4.4539247531       -1.1980448301       -0.3615203441
 O          4.2718996598       -0.7711994608       -2.0870096897
 H          3.6138890843       -1.4839123105       -2.0299478892
 H          3.7921628329        0.0403262918       -2.3506878082
 O         -5.0075699617        1.0026154822       -2.3798376601
 H         -5.7938644935        1.0085251774       -2.9254109562
 H         -4.9836689158        0.1114045413       -1.9371887017
 O         -0.2243126070        0.7155251833        3.5664592627
 H         -0.1143094299       -0.1999052272        3.8507079457
 H          0.6902308651        1.0794742599        3.5081652109
 O          5.0928049904       -0.0219465243        0.2739256509
 H          6.0258388109        0.1829895097        0.2170619623
 H          4.8270926117       -0.3560695238       -0.6299847834
 O          2.8138845839        1.4326166508        0.5548706360
 H          2.2422680328        0.6137164289        0.3859587322
 H          3.7261230247        1.0946331714        0.5473619673
 O         -1.0110446951        1.2164336565       -1.0187650726
 H         -0.4244999215        1.8898442330       -0.6164225577
 H         -1.7622644943        1.7283819403       -1.3923041660
 O         -1.1335806191        2.7014102008       -3.8489451767
 H         -0.3264526155        3.1400234678       -3.5123402627
 H         -1.8449861439        3.0387433833       -3.2888522788
 O          2.2728944181        1.6076786467        3.2254438168
 H          2.4975571882        1.6350108856        2.2740372467
 H          2.7349561688        0.8322110395        3.5762080583
 O         -0.9955376182        2.9850714493        2.3799432669
 H         -0.8996091371        2.0740311005        2.7222936663
 H         -0.7027728248        3.5529587281        3.0950650606
 O          1.0533824632        3.7156472396       -2.5661538090
 H          0.8437133656        3.6977422537       -1.6226027279
 H          1.8203994930        3.1316763182       -2.6732769522
 O          2.7641133962        1.4916803048       -2.2905424771
 H          1.9323316128        1.0548178807       -2.5735376459
 H          2.7302159188        1.5851054564       -1.3242943493
 O          0.8575616075       -4.1543745376        2.7813235790
 H          1.1153235654       -4.9748312508        3.2024789311
 H          1.4688618610       -4.0594355413        2.0064812057
 O         -2.5874781361        0.2945750440       -3.6337358132
 H         -2.0711188076        1.0850816495       -3.8486882845
 H         -3.4445686912        0.6137966387       -3.3146689377
 O          0.6087057301        3.0414566110        0.1504860554
 H          1.4593898891        2.6313853126        0.3695695281
 H          0.1085477346        3.1006343254        0.9837485499
 O          3.0464654303       -0.8990390965        4.1635316700
 H          3.4802514317       -1.1059672362        4.9918302376
 H          2.1430310721       -1.2752353279        4.2077070382
 O         -3.0171605797        2.8325078245       -1.7716810354
 H         -3.1201858385        3.3100433839       -0.9278500015
 H         -3.8208980502        2.3087881096       -1.9085297086
  95
       -150.34286783
 H         -2.1337647032       -1.0951579424        2.3537108302
 C         -2.6575718143       -1.4728333923        1.4505814588
 C         -0.4861212346       -2.1544692461        0.5764721882
 C          0.6324040341       -1.2074721979        1.0299864728
 C         -3.8889100497       -0.6641430235        1.2563215912
 H         -0.1704302106       -2.6582205247       -0.3430573711
 H          0.2063476413       -0.4333069535        1.6709736465
 H         -4.7850740507       -1.0367572788        1.7294421851
 H         -2.9232302076       -2.5174854812        1.6423651850
 H         -0.6587924801       -2.9239942539        1.3283564109
 H          1.3879989172       -1.7508921814        1.5933522131
 N         -1.7463636036       -1.4640268086        0.3078079106
 H         -1.5506439489       -0.5008769604        0.0348931229
 C         -3.8062747924        0.8017296725        1.0391929103
 H         -4.6882168705        1.1711355271        0.5197452989
 H         -2.9203636962        1.0681857550        0.4731852010
 H         -3.7599242089        1.3338964851        1.9963370501
 N          1.2961700758       -0.5435682800       -0.0869243812
 H          0.5893189036       -0.1447981961       -0.6951643448
 H          1.8120531843       -1.2282042605       -0.6277535698
 O          2.4646126379       -2.8104706364       -1.7875535624
 H          2.9224482871       -3.5137945662       -2.2505543413
 H          1.6171267918       -2.6670168671       -2.2926230859
 O          0.2896098713       -2.3001173486       -3.1397276907
 H          0.3508191933       -1.3383315822       -3.2844070236
 H         -0.6455195611       -2.4623430545       -2.9087860557
 O          2.7063161897       -3.8302865380        0.8656348512
 H          2.5390798195       -3.5020652037       -0.0297916619
 H          3.3729382154       -3.2220974316        1.2489765002
 O          0.4248233191        0.4417123413       -3.1095513682
 H          0.1241286629        0.9523563378       -3.8691012224
 H         -0.2105618067        0.6826201598       -2.3902546597
 O         -2.3251546185       -2.1237073453       -2.3219137603
 H         -2.3588420271       -1.2858642969       -2.8256924141
 H         -2.1040759555       -1.8935869323       -1.3958247303
 O         -2.9323195239        4.0733894245        0.5832383549
 H         -2.3751930858        3.5861648870        1.2116908580
 H         -2.4758798301        4.8963345668        0.3996629808
 O          4.3101194559       -1.9595391895        1.9595945727
 H          4.6090622884       -1.2463976526        1.3701385401
 H          3.8966973665       -1.5234526602        2.7192231905
 O          0.5881496709       -1.9618865259        4.3191560994
 H          0.6769252942       -2.7275252034        3.6996982610
 H          0.1920854078       -2.3102012679        5.1191515443
 O         -4.7885312297       -1.4534508945       -1.2856881084
 H         -4.0568553509       -1.8895794883       -1.7638881759
 H         -4.4455507032       -1.2689927333       -0.3783541272
 O          4.2827556604       -0.6784041342       -2.0624469747
 H          3.6393974465       -1.4043602186       -2.0048761721
 H          3.7879201879        0.1219653428       -2.3317440820
 O         -5.0215608057        0.9114005775       -2.4139763623
 H         -5.8038253602        0.9001183452       -2.9651140524
 H         -4.9865314585        0.0245222384       -1.9635852827
 O         -0.2691622756        0.7128838748        3.5771716763
 H         -0.1335234488       -0.1972203940        3.8676191267
 H          0.6344440005        1.1028639826        3.5199065626
 O          5.0800573106        0.1066302693        0.2950909533
 H          6.0061685541        0.3400489581        0.2359335472
 H          4.8241550975       -0.2406585891       -0.6066522980
 O          2.7660476109        1.5057575298        0.5676363699
 H          2.2131698921        0.6734143422        0.4006523903
 H          3.6856683262        1.1881320876        0.5653751092
 O         -1.0385416827        1.2058029170       -1.0296501225
 H         -0.4699375882        1.8929465302       -0.6245152803
 H         -1.7938213949        1.7009418663       -1.4173312778
 O         -1.1605832456        2.6663415654       -3.8744729219
 H         -0.3689581946        3.1277781236       -3.5315766311
 H         -1.8867953358        2.9929006136       -3.3269613453
 O          2.2020863988        1.6771083651        3.2353710957
 H          2.4311754721        1.7075077419        2.2852912034
 H          2.6840408602        0.9161660788        3.5911329096
 O         -1.0843739027        2.9593631133        2.3700918703
 H         -0.9708432161        2.0521445570        2.7160124335
 H         -0.8131285324        3.5358503597        3.0867291784
 O          0.9827415487        3.7415754673       -2.5690079796
 H          0.7656085925        3.7235781850       -1.6272402115
 H          1.7627805854        3.1732476983       -2.6669276424
 O          2.7327236002        1.5549626166       -2.2769222795
 H          1.9136101214        1.0968345620       -2.5635129649
 H          2.6921253979        1.6480701471       -1.3108527890
 O          0.9204999476       -4.1152330961        2.7924166916
 H          1.1776939695       -4.9398403974        3.2065413174
 H          1.5395889469       -4.0065054441        2.0252141761
 O         -2.5788699688        0.2349186128       -3.6394422293
 H         -2.0756030642        1.0310315663       -3.8634506464
 H         -3.4433662468        0.5427706930       -3.3291524350
 O          0.5317047913        3.0669509020        0.1497384213
 H          1.3906343753        2.6746030882        0.3697357660
 H          0.0272449642        3.1076901406        0.9814280276
 O          3.0446909004       -0.8035287075        4.1824583536
 H          3.4834686172       -0.9934488934        5.0121416576
 H          2.1526265050       -1.2059286879        4.2285514587
 O         -3.0649498404        2.7803132016       -1.8165729671
 H         -3.1746699851        3.2638597355       -0.9771633455
 H         -3.8606761961        2.2433725739       -1.9485623894
  95
       -150.34144407
 H         -1.1789977993       -0.9528027747       -1.6437271072
 C         -1.7336454089       -1.2016864673       -0.7312911376
 C         -0.5424897872        0.2791871400        0.8551351121
 C          0.5390265648        0.9313766892       -0.0176432009
 C         -2.3091454530       -2.5667698398       -0.8458172921
 H         -0.1664598655        0.2290696668        1.8787493442
 H          0.1967119167        1.0017318684       -1.0506818848
 H         -2.9696969235       -2.8969444221       -0.0601852021
 H         -2.5451697013       -0.4683551568       -0.6228302063
 H         -1.4430598712        0.8923175905        0.8411494012
 H          0.7221742133        1.9356745242        0.3653623873
 N         -0.9058839091       -1.0787457637        0.4746467537
 H         -0.0550121757       -1.6200065129        0.3409391006
 C         -2.4335178508       -3.2081982099       -2.1754544546
 H         -3.2717907464       -2.7809482452       -2.7395656043
 H         -2.6205310484       -4.2760233328       -2.0808154506
 H         -1.5362094593       -3.0500991080       -2.7732625745
 N          1.8058485747        0.2147470325       -0.0205526192
 H          1.6862755597       -0.7241434721       -0.3938028079
 H          2.1844043916        0.1341279980        0.9196243830
 O          3.5972071101       -3.1906373213        1.8826479621
 H          4.2878587020       -3.7642503736        2.2151875322
 H          3.8008271256       -3.0197562760        0.9383790662
 O          1.6208258403       -2.4815351479       -1.2126978976
 H          2.5824279212       -2.5591795805       -1.1013632538
 H          1.4722073526       -2.1374805868       -2.1107120335
 O          0.8512550074       -3.1119370943        2.5180630495
 H          1.8015020897       -3.2386370635        2.3814690578
 H          0.4402993761       -3.5004509630        1.7117653860
 O          1.1634730509       -1.2751691576       -3.6199299312
 H          0.4940747400       -0.5523950752       -3.5034747735
 H          0.9721990857       -1.6764531149       -4.4680725158
 O         -0.1169505180       -4.0403772810        0.1924335799
 H          0.5628836046       -3.6588668647       -0.3911580600
 H         -0.9685288147       -3.6579078217       -0.1163667684
 O         -3.1066949682        2.7091386793        1.9964832367
 H         -3.4624320259        2.3482125742        1.1653656213
 H         -3.1107699267        1.9694522084        2.6265530208
 O          2.2434851927        3.7642572322       -1.5379331062
 H          2.8386155523        4.5113486182       -1.5996171233
 H          2.8171359064        2.9581160195       -1.3980835350
 O         -1.8380870927       -2.0939170129        2.7560782240
 H         -1.1156429276       -2.6719933230        3.0181924852
 H         -1.5596634660       -1.7249806630        1.8671517576
 O         -4.1188787994        1.3454185167       -0.1664226978
 H         -4.3942057347        0.6592001794        0.5029928896
 H         -4.9348714288        1.6902950831       -0.5312662851
 O          4.3118118130       -2.4703416638       -0.6255657048
 H          4.6150002439       -1.5487193832       -0.3571216302
 H          5.0094850526       -2.8242596261       -1.1772941681
 O         -4.8222664285       -0.2660439504        1.7629432898
 H         -4.2642115408        0.0117678499        2.5045156696
 H         -4.7002559231       -1.2319012059        1.6892097426
 O         -0.4196808598        1.6907959797        4.0876707312
 H         -0.3193520764        2.3029322124        3.3407862425
 H          0.1987606421        0.9623717665        3.9408874788
 O          5.1112265682       -0.1328839206        0.1711678936
 H          4.7414580016        0.5646275138       -0.4083536657
 H          4.6626378919       -0.0293494142        1.0227689491
 O          3.0590599501        0.7853795784       -3.8528952707
 H          2.4872592547        0.0051853935       -3.7655900212
 H          2.4823229147        1.5113678638       -4.1263512602
 O          1.1359092444        2.9165948099       -3.9124310244
 H          0.3752903273        3.5176473666       -4.0380952614
 H          1.5445712617        3.2200509376       -3.0799686787
 O         -1.1328259757        4.3712263252       -3.5504800229
 H         -0.9211542099        4.6957525133       -2.6666541479
 H         -1.7454844758        3.6403971123       -3.3981982989
 O          3.4390142816       -0.4485515040        2.4326206093
 H          3.5454446547       -1.4074337150        2.3271473253
 H          2.6763563814       -0.3435113915        3.0221725248
 O         -2.7616432813        0.4098512444        3.5780352018
 H         -2.4276060046       -0.4840730578        3.3952609519
 H         -1.9880150713        0.8985584386        3.9259570830
 O         -0.4243731736        4.0628811463       -0.7519525118
 H         -0.4688090320        3.9354135758        0.2125712128
 H          0.5095004158        3.9474318586       -0.9917309137
 O          3.6274894539        1.5568704906       -1.3472943927
 H          3.5776691306        1.2594293150       -2.2823562665
 H          2.8998584374        1.0461387449       -0.8717729458
 O         -4.2466246994       -2.9337221364        1.9455360845
 H         -3.3569712891       -2.7252867320        2.3071509823
 H         -4.7437918583       -3.3437759104        2.6536413499
 O         -0.4517486591        0.7667703191       -3.4900800119
 H          0.1404119714        1.5128327973       -3.7210580245
 H         -1.1482249442        1.1678469445       -2.9383504520
 O         -0.6333049944        3.5617018988        1.9649480596
 H         -0.6367004999        4.3888044811        2.4493712759
 H         -1.5829726532        3.2607465882        1.9477362747
 O          1.0332290930       -0.7398349148        3.7760019644
 H          1.0338735954       -0.9984208221        4.6987517682
 H          0.8748271387       -1.5660149235        3.2647335588
 O         -2.0999646670        2.2403009056       -1.9202920886
 H         -2.7745315156        1.9084833442       -1.3142608935
 H         -1.5330601919        2.8530824082       -1.4093293966
  95
       -150.34114546
 H         -2.4569905118       -0.5833464806        2.1909374741
 C         -2.9583169832       -0.9316737479        1.2627304725
 C         -0.9494007712       -2.2102210091        0.6937199756
 C          0.2959278083       -1.5151367733        1.2571931188
 C         -3.9015795489        0.1188194346        0.8079764157
 H         -0.6553152261       -2.8267606852       -0.1627714891
 H         -0.0159481609       -0.7206210143        1.9380134119
 H         -3.4812921007        0.9567826018        0.2745894384
 H         -3.5036510421       -1.8452446903        1.5306818708
 H         -1.3815802424       -2.8707392867        1.4470799273
 H          0.8989951509       -2.2323988173        1.8099372950
 N         -1.9759728127       -1.2734446681        0.2447836659
 H         -1.5344696626       -0.4125134509       -0.0841871483
 C         -5.1413759542        0.3737861655        1.5814523718
 H         -5.8511762488        0.9492538894        0.9910376667
 H         -4.9287141640        0.9577636970        2.4848491135
 H         -5.6088922328       -0.5572395941        1.8977640886
 N          1.1268901723       -0.9114621835        0.2169921071
 H          0.5260327265       -0.3877861988       -0.4122373391
 H          1.5684024877       -1.6397128151       -0.3322088654
 O          1.9864040537       -3.4584783680       -1.4290818233
 H          2.1362708172       -4.3532915823       -1.7362512504
 H          1.1934634206       -3.1302366157       -1.9336534614
 O          0.0757289803       -2.4155696214       -2.8646333084
 H          0.2922077422       -1.4896743741       -3.0556267673
 H         -0.8957830493       -2.4465245264       -2.7510976529
 O          3.5835081213       -3.1653725159        0.9109032070
 H          3.0450178101       -3.2597474717        0.1135060775
 H          4.0187702064       -2.2952917877        0.8581022332
 O          0.9677295645        0.2922931283       -2.9430677417
 H          0.7569024380        0.8235034057       -3.7184263724
 H          0.2929098150        0.5810222104       -2.2750731252
 O         -2.5528795078       -1.9898751423       -2.3366602063
 H         -2.4041873091       -1.1836232679       -2.8712751385
 H         -2.3652018015       -1.7492066580       -1.4023533555
 O         -3.2029507216        3.5169802370        0.6934093908
 H         -2.5668591484        3.1668264544        1.3399485628
 H         -3.1774284263        4.4710582398        0.7756265152
 O          4.8523310816       -0.6884831749        0.9652870074
 H          4.9362399236       -0.4491829612       -0.0144690067
 H          5.7564841278       -0.7505091657        1.2767674693
 O          0.6085743887       -1.7348482826        4.8476448517
 H          1.0449996533       -2.3439223908        4.2368606708
 H          1.3144816772       -1.3014253426        5.3333241882
 O         -4.9688504785       -0.9461416307       -1.5537912501
 H         -4.2794611299       -1.5316468081       -1.9216434229
 H         -4.6302354223       -0.6536395819       -0.6709717415
 O          3.3079818103       -1.4971888256       -2.8950514558
 H          2.9498698740       -2.2539558142       -2.4050911589
 H          2.5560614806       -0.9254041561       -3.0908715641
 O         -4.6932729550        1.1820573069       -3.0690388503
 H         -5.4661739520        1.2976975096       -3.6208317837
 H         -4.8682074376        0.3835751015       -2.5005695903
 O         -0.4162166644        0.5532837245        3.6594642606
 H         -0.3827688584       -0.2759624875        4.1600857007
 H          0.5089314738        0.8935371696        3.7034498575
 O          5.0528430512       -0.0101525946       -1.5100093465
 H          4.5397673861        0.8093337393       -1.6408718048
 H          4.5906831027       -0.6606859355       -2.0786507732
 O          2.6747025159        1.0706387037        0.9519516078
 H          2.0786707705        0.2791446137        0.7454154530
 H          3.5519860158        0.6801160965        1.0712952798
 O         -0.7220572014        1.0839678662       -1.0526543187
 H         -0.2565517840        1.7574426347       -0.5120177590
 H         -1.4655875429        1.5748635095       -1.4666523385
 O         -0.5754162663        2.5983998955       -3.6763806417
 H          0.1418755936        3.0892221614       -3.2229272830
 H         -1.3794704994        2.9429557924       -3.2678935830
 O          2.1257342322        1.3504693301        3.6253880588
 H          2.3102102297        1.4499181127        2.6749986206
 H          2.6796524213        0.5916312245        3.8844200110
 O         -1.2757002367        2.7983388976        2.5693576715
 H         -1.1103913191        1.8999697826        2.9305815439
 H         -1.1017316744        3.3991214033        3.2959314888
 O          1.2327260681        3.8312409269       -2.0738822356
 H          0.8757777284        3.7759714072       -1.1782351471
 H          2.0320377810        3.2768517109       -2.0602329013
 O          2.9814480796        1.7494344196       -1.6881157020
 H          2.3467644843        1.1744066503       -2.1543608057
 H          2.8255144223        1.6122856940       -0.7342540776
 O          2.4036526883       -3.3294792662        3.2693683323
 H          2.7220145290       -4.1168550226        3.7121943145
 H          2.8076959928       -3.3403060021        2.3644693881
 O         -2.1395313211        0.2562374451       -3.7883115374
 H         -1.5320354850        1.0090098689       -3.8422374595
 H         -3.0269563806        0.6388194441       -3.7270002879
 O          0.5404759788        2.8666326042        0.5153024186
 H          1.3440161627        2.4207537994        0.8135175276
 H         -0.0657798955        2.9018795641        1.2774390824
 O          3.6667470698       -0.9012970597        3.6704307289
 H          3.1968224311       -1.7514123632        3.6281643438
 H          4.0914645821       -0.8045705124        2.8103981361
 O         -2.7243579733        2.6801972598       -1.8675374950
 H         -2.9819600397        3.0208495688       -0.9922290097
 H         -3.5060862303        2.2493508669       -2.2478134397
