  131
       -218.46354668
 H          2.7036530345       -0.6714564424       -0.7666775593
 C          2.4104236494       -0.7077305506        0.2856372837
 H          2.8930106249       -1.5600832454        0.7617627893
 C          0.8932830180       -0.8360692446        0.3769521825
 H          0.5665404727       -0.6664094288        1.4053785104
 H          0.6212467057       -1.8479120850        0.0788301369
 N          0.1920067285        0.0942355756       -0.5009387845
 H          0.4039566273        1.0508368542       -0.2430890731
 H          0.5240606696       -0.0446708034       -1.4551094934
 O          2.9021377398        0.4551178409        0.9440898786
 H          2.2911719856        1.2026966382        0.7832885674
 O          3.5216620001       -2.1903421695       -2.4538140061
 H          4.2784587077       -2.0076099529       -1.8661665748
 H          3.0318211617       -2.9016816054       -2.0091045812
 O          0.3434533046        3.3136513973       -4.0422441873
 H          1.2374932241        2.9448414845       -4.0013837310
 H         -0.2263204689        2.6521691616       -3.6129907162
 O          0.4535747703        5.0577941963       -1.9926335311
 H         -0.1567065556        4.5931626921       -1.4021822730
 H          0.3715897090        4.5985369670       -2.8569823536
 O         -0.9940584780        3.1525947079       -0.4722346449
 H         -1.0699722279        2.5351327345       -1.2262769751
 H         -1.8603039577        3.1757542756       -0.0448999106
 O          2.2024832767       -4.1299034658       -0.9623569497
 H          2.4496553365       -4.9962424720       -1.2885659188
 H          2.5198646973       -4.0950169220       -0.0227476422
 O          1.5008242624       -0.4710118057       -3.0049011228
 H          2.2211967854       -1.1309497585       -2.9458067235
 H          0.7744227963       -0.8540358368       -3.5092082049
 O         -4.6385238499       -2.2451742982       -3.3223983544
 H         -3.8607523301       -2.5142554805       -2.8055367246
 H         -4.3077414059       -1.6282941468       -3.9910990801
 O         -2.1329143118        1.8816471573        2.9417920761
 H         -2.4580134690        2.3203001484        2.1395276940
 H         -2.9288391356        1.7516700102        3.4954087444
 O         -1.1940870064       -0.9789118136       -3.6193042458
 H         -1.8987817691       -0.8072091020       -4.2598396760
 H         -1.5690941921       -1.6294714328       -2.9911101408
 O          4.9459502968        3.8315748940        0.1630163804
 H          4.5890811974        3.9805554586        1.0448978954
 H          4.2067404252        3.9761268289       -0.4546259880
 O          5.1624316142       -2.4296117338        2.0119550882
 H          4.7966841890       -1.6604247147        2.5251346267
 H          5.9522704471       -2.7149677337        2.4710520377
 O          3.0162742875       -4.0886693948        1.5367329237
 H          3.8203922179       -3.5666412173        1.7001822850
 H          2.3507285365       -3.7795026475        2.1763746649
 O          4.1259532149       -0.3318191620        3.2212154721
 H          3.5834012710       -0.0481042931        2.4604339730
 H          4.8231160696        0.3635585922        3.2639193494
 O          1.3830203242        2.7077415631        0.6870448487
 H          1.9304187981        3.1202610906       -0.0489425601
 H          0.4728616757        2.9703177650        0.4437621599
 O         -1.2975210233        1.5585831476       -2.6552328864
 H         -1.1348894472        0.6318973392       -2.9301471383
 H         -2.2039866818        1.7604115974       -2.9296165200
 O         -0.5308243853       -4.0565878389       -0.6913857563
 H         -0.6571432168       -3.8718149521        0.2573238058
 H          0.4276038179       -4.0597349915       -0.8557951523
 O         -4.2744093875       -1.7247138064        3.1875867779
 H         -4.8150792108       -1.1326559740        2.6303470920
 H         -4.2712876337       -2.5779846886        2.7458456317
 O          1.5811408196       -0.7436428808        4.2139552145
 H          1.1672676590        0.0792680666        3.8964204870
 H          2.5358511885       -0.6102308152        4.1048177100
 O         -2.4073491392       -2.5695361865       -1.7625094413
 H         -2.3865672224       -1.7866250446       -1.1594553800
 H         -1.6744062725       -3.1623198720       -1.4761698397
 O         -4.5077662638        1.1600911604        4.0043803353
 H         -4.4210049687        0.3266685500        4.4746180087
 H         -5.0467484070        0.9623044699        3.2246229725
 O          5.0448411920        0.8045903171       -2.7977900498
 H          5.2754698578        0.9775534906       -1.8679341570
 H          4.9651158728       -0.1481470270       -2.8903318470
 O         -3.4859917733        2.9574083709        0.7501428516
 H         -4.1648822414        3.5645886598        1.0452834759
 H         -3.9239281857        2.2679355791        0.2166175566
 O         -2.3324055765       -0.4361129333       -0.2309643963
 H         -2.2895364650       -0.6105780918        0.7355907841
 H         -1.3901870495       -0.1350343623       -0.4442107234
 O          3.3770145657        3.2929981612        2.5762006328
 H          2.6629819323        3.1640683853        1.9302707645
 H          2.9758279536        3.1411402840        3.4344406548
 O         -5.6430875583        0.0955456198        1.6420277091
 H         -6.2139662029       -0.6099108513        1.3125316304
 H         -5.2130786682        0.4684710413        0.8502949581
 O         -6.1137497389       -0.8647602836       -1.6075337702
 H         -5.6479474330       -1.3876187837       -2.3039825317
 H         -6.2429319214       -1.4800067458       -0.8672825429
 O          5.3597795697        1.2171189656       -0.0460432436
 H          5.3363872036        2.2030680046       -0.0684820837
 H          4.4768380089        0.9515386164        0.2717689406
 O          5.7258302363        1.7072796033        2.7375376400
 H          5.9373323297        1.5364874033        1.8067914939
 H          5.0411141853        2.3940285519        2.7252721486
 O         -1.9428326919       -0.7294910402        2.3646264824
 H         -2.7437033013       -1.0723629048        2.8139927157
 H         -1.8614145676        0.2097083107        2.6290780142
 O         -4.4784774706        0.9199041929       -0.7439746788
 H         -5.1456084108        0.2599796114       -1.1087409837
 H         -3.6405284961        0.3965134059       -0.6101315008
 O          2.6582874729        1.9621831817       -3.2357019411
 H          2.1587864516        1.1266691951       -3.1616457137
 H          3.5941553316        1.6779652839       -3.2449404663
 O         -1.0876861565       -3.2630335048        1.8651959566
 H         -0.2980953579       -3.4214615697        2.4107657272
 H         -1.2768755582       -2.3190473256        1.9997055372
 O          2.6458927105        3.7728111029       -1.2852619302
 H          1.9535500256        4.4224397067       -1.5635476426
 H          2.6910603659        3.1167756095       -2.0199538697
 O          1.1746220623       -3.1946496600        3.3808360919
 H          1.2821689516       -2.2422902783        3.6468736418
 H          1.2026348998       -3.6945949469        4.1971292028
 O         -3.6411080456       -3.4295798215        0.6652245660
 H         -2.8226444074       -3.5403029257        1.1715486814
 H         -3.3511290536       -3.3310739296       -0.2558091504
 O         -3.9930733846        1.8968054353       -3.1617693521
 H         -4.2200813027        1.5693755281       -2.2540796153
 H         -4.5448684370        2.6594272219       -3.3334133519
 O         -6.1513358896       -2.4703109590        0.6446969911
 H         -5.2315294541       -2.8110202199        0.6607623166
 H         -6.7210707853       -3.2392183327        0.6226608296
 O         -3.5456152518       -0.1839494967       -4.8801515221
 H         -3.7287017537        0.0944984233       -5.7774504636
 H         -3.7508716801        0.5724085423       -4.2962730576
 O          0.6386341153        1.6537621536        3.2341166261
 H         -0.3151549679        1.7946881377        3.3112868650
 H          0.8793898420        1.9811854649        2.3585288998
 O          5.5000527749       -1.5748004723       -0.6388973875
 H          5.7048866199       -0.6464205595       -0.4713339278
 H          5.3971797985       -1.9803399643        0.2358229576
