  534
       -906.51363799
 O          4.7472703043        2.6224267511       -2.7990783502
 H          5.2712541382        2.9951448117       -2.0703023880
 H          4.9853916376        1.6638596443       -2.8604948063
 O          1.6822398175       -1.6751718975        3.3605294062
 H          2.2605930522       -2.3072856659        2.9028685801
 H          1.6876913546       -1.9455564538        4.2946430570
 O          0.4528151091        2.7129664726       -0.3756037360
 H          1.1444907869        2.5312764323       -1.0304139650
 H         -0.3371923224        2.2219640545       -0.6543264256
 O         -3.1775677440        6.3662823357       -1.6543372801
 H         -2.3510301525        6.8863644695       -1.5088942350
 H         -3.7998029171        6.6542445797       -0.9792586775
 O          3.0182836341       -0.5992998316       -2.0568308206
 H          3.3163261373       -0.7986371597       -1.1508054690
 H          2.7056864022        0.3295695679       -2.0941564480
 O          2.6391930465        0.3809882546       -4.7911514379
 H          3.1624369233       -0.4265151257       -4.6856374525
 H          1.9469964642        0.1717066770       -5.4399072395
 O         -2.6466602311       -3.0838824834       -2.8818202679
 H         -2.6551548880       -2.1065640990       -3.0309939534
 H         -2.8744042192       -3.5033119584       -3.7397505032
 O          3.3886722135        4.0314072579       -0.7138656072
 H          3.2687806965        3.0680407625       -0.6140482073
 H          3.1435435418        4.2750422354       -1.6298977827
 O          2.2353591741        1.9326912790       -2.3004823743
 H          3.1099062603        2.2815588869       -2.5646925604
 H          1.6263991527        2.1290285389       -3.0290483379
 O          0.1465820626        3.4612557911        2.6644209874
 H         -0.6030272362        2.9559962557        2.2937267009
 H         -0.2607542685        4.2193056854        3.1225087334
 O         -3.8731599476       -2.0901743985       -0.0253761937
 H         -4.0657400048       -1.2229111434        0.3861704265
 H         -2.9182422409       -2.0457510635       -0.1916547849
 O         -2.3531108043       -0.5582413522       -3.3740647143
 H         -1.6349109627       -0.1829742504       -2.8265712968
 H         -1.9419475857       -0.7540401007       -4.2401052779
 O          0.4284430151       -5.3634192079       -3.4611850207
 H         -0.2613206280       -5.9628082305       -3.1368359318
 H          0.4757801271       -4.6562386965       -2.8016261620
 O         -0.1262214955        0.3176851905       -2.2496584878
 H          0.3286944460       -0.3329800540       -2.8395750338
 H         -0.0752634631        1.1748298024       -2.6994253962
 O          0.2841204971       -4.3736379327        1.5125985700
 H          0.0876303054       -5.1515127038        0.9480259010
 H          0.6446128053       -4.7596132641        2.3423213481
 O         -6.2782636249       -0.3278892380       -0.3200671881
 H         -6.0945897522       -0.4434543062        0.6301722281
 H         -5.4366621476       -0.1888209605       -0.7967067475
 O         -0.2342209536       -3.2049382164       -1.8488656331
 H         -1.1116842402       -3.2406143215       -2.2923839531
 H         -0.3618015360       -2.6011903044       -1.1062729147
 O         -2.4264055746        0.1553044867        3.8385835461
 H         -2.9166413461       -0.6238466485        3.5178855772
 H         -2.0561507471       -0.1351075720        4.6947919163
 O          5.7356062913        0.9361380586        0.0877929486
 H          5.9106242826        1.5039442816        0.8625739680
 H          6.3628135239        1.1913075065       -0.5997657341
 O         -7.2289263922        2.0104320302       -0.8169025268
 H         -8.1727057232        2.0916710446       -0.5851479433
 H         -6.9697548257        1.1024817082       -0.5168847374
 O          2.7785848206       -3.4768857408       -2.3132544642
 H          3.5946847580       -3.6456318897       -1.7935491289
 H          2.1247661791       -3.2434940440       -1.6326722357
 O          1.5637537399        1.6342573578        3.9972016673
 H          0.9421171541        2.2859404939        3.6056938430
 H          1.9479058903        2.0697612933        4.7879076858
 O         -6.9662558261       -5.6895459248        2.8122461932
 H         -6.9719891482       -6.6162828303        2.5750000379
 H         -6.5062164758       -5.6059708345        3.6543318516
 O          6.5719807744       -2.3778584484       -3.3718723973
 H          5.6321120330       -2.2148967611       -3.6441764544
 H          7.1047352466       -1.8286334714       -3.9883890838
 O         -2.0337047170        2.1295022150        1.9372669626
 H         -2.6633461491        2.8698445218        1.9771147383
 H         -2.2644365328        1.4589370449        2.5995892255
 O         -2.9813062340       -4.8459105639       -0.9548008683
 H         -2.9223631721       -4.1415423444       -1.6288063375
 H         -2.6680295472       -4.4630291075       -0.1081112571
 O         -8.6038208724       -0.4361353688        1.1027290414
 H         -8.8925709560       -1.0150714348        1.8226624580
 H         -9.1872716075       -0.6668995897        0.3644493634
 O          3.2141932119        1.5912250140        0.2702911933
 H          4.1257522158        1.2453512330        0.1294494798
 H          3.2225922405        2.0578569473        1.1220680647
 O          3.5354508469       -3.3635657699        2.2932522687
 H          3.4579630238       -4.2029835519        1.7882755242
 H          4.4541323811       -3.0549395990        2.1711290268
 O         -5.3294039612       -4.5721591950        4.9287542123
 H         -4.6593129702       -4.0575629964        5.4026119079
 H         -6.0414423078       -3.9326865396        4.7256026091
 O         -0.7549764571       -2.8149748318        4.3103234881
 H         -0.1550291581       -2.8059666355        5.0710201354
 H         -0.2316503748       -2.4381993606        3.5926301637
 O          6.9019292500       -0.0691507649        2.7692260263
 H          7.7183476493        0.1602910618        3.2485376261
 H          6.4134249983        0.7695388370        2.6867252551
 O          1.8145251512       -2.7325753621        0.0768231070
 H          1.3043724823       -3.3641802001        0.6201946516
 H          2.6947022614       -2.6373634521        0.4726269049
 O         -6.1194935126       -1.0261622766        2.3104168933
 H         -6.6286807096       -1.7922094678        1.9595034353
 H         -6.7672676107       -0.5367345064        2.8432217609
 O          6.4182074274       -1.8377792995       -0.7699080184
 H          7.1457799449       -1.2614053708       -0.4580390133
 H          6.5438231565       -1.9470971955       -1.7353819471
 O          3.5880760474       -5.6016824746        0.8853062828
 H          3.9172101417       -5.1425066704        0.0912233062
 H          4.3965410771       -5.9255194361        1.3211122921
 O          6.3891941268        3.5925730135       -0.9261290597
 H          7.3135522251        3.5270422132       -1.2078393625
 H          6.3764260481        3.9705778053       -0.0339360169
 O         -7.2786018882        1.8108932479        1.9953071384
 H         -7.7592550290        1.0304085736        1.6584701245
 H         -7.6848483753        2.0500228360        2.8434261828
 O         -1.4968336957       -5.3305374660        4.5375055887
 H         -1.2562032356       -4.3785788053        4.3847171667
 H         -1.7046798228       -5.3984633851        5.4694010499
 O          1.5530403854        6.5304262175       -1.3181330497
 H          1.7601901037        5.9265141694       -2.0486718287
 H          1.4271457877        5.9783930031       -0.5283341949
 O         -3.7021208570       -5.5068730524        3.0411986525
 H         -4.3727887068       -5.1717261907        3.6775649512
 H         -2.8968186768       -5.6110933089        3.5905751988
 O         -4.7963647932       -6.8111269801       -0.8646039394
 H         -4.2507343480       -6.0007054512       -0.7732188597
 H         -5.6894913487       -6.5723899820       -0.5798782854
 O          4.0795473204       -2.0718315901       -4.2242746514
 H          3.5243995620       -2.4993941583       -3.5471587122
 H          4.1530081303       -2.7222314622       -4.9550132527
 O          9.9210162719        0.5134641241       -4.3952002814
 H          9.7449743736       -0.0601513333       -3.5948834614
 H         10.6525984175        0.1115592209       -4.8635057733
 O         -3.9667703794        0.3314554384        1.1545187273
 H         -4.1402485612        0.3355198125        2.1030103187
 H         -4.3494451931        1.1821758177        0.8615464012
 O          5.3153753219        0.1168035451       -3.1191636964
 H          5.3125114037        0.0718965324       -4.0972238946
 H          4.4861569269       -0.3126221375       -2.8041122580
 O         -7.4687630767       -3.1092274737        1.4928666588
 H         -7.8030643991       -2.8623449512        0.6079078128
 H         -6.7650424175       -3.7675947757        1.3446434855
 O         -2.7314826027        2.3910394960       -3.4927012738
 H         -1.7608118187        2.3790266537       -3.4928066171
 H         -3.0043894613        2.0297902696       -4.3530173834
 O         -7.0217748583        4.8504225663       -1.3140542745
 H         -7.5002332865        4.5100209009       -0.5180342362
 H         -7.4598402615        5.6617697669       -1.5711638234
 O         -3.4155281808        3.7603074704       -1.1341656331
 H         -4.0414902090        3.4854361141       -1.8334596978
 H         -3.2134371386        4.7061319255       -1.2651015975
 O         -3.3428536982        4.9311792196       -4.0453282409
 H         -3.5058492894        5.5052240690       -3.2850801605
 H         -3.1991987430        4.0107511758       -3.7139523688
 O         -5.0383174802        2.7405608435        0.6937626207
 H         -5.8637271619        2.5893471665        0.2021130441
 H         -4.4178043651        3.2152013117        0.0996545796
 O         -5.2144752136       -4.3298689631        0.7804625402
 H         -4.8146079935       -4.7992832097        1.5179438843
 H         -4.6584127106       -3.5513218815        0.5848351264
 O         -2.3220967070       -3.8485017627        1.4308281903
 H         -1.3583990439       -3.9695703149        1.5439671745
 H         -2.7525404026       -4.4957993251        2.0172451759
 O          3.2104603462       -4.6306029840        4.6425811034
 H          2.5096377559       -5.2513276210        4.3767541262
 H          3.3637713433       -4.0871444126        3.8381594141
 O          0.8565167416       -0.1013237566        5.8620590755
 H          1.7590759862       -0.4164714037        6.0610575939
 H          0.9439742102        0.3951281980        5.0229047660
 O          9.0502323384       -3.2756051988       -0.9941146471
 H          8.9728409755       -2.4808418704       -1.5480255732
 H          9.9670080588       -3.2856879279       -0.6983389663
 O         -7.7021491026       -2.3865541477       -1.1343064858
 H         -7.4153385928       -1.4879195114       -0.8744204255
 H         -6.8770680896       -2.7946343567       -1.4585332601
 O        -11.0010573225       -1.3348525042       -2.9311655406
 H        -10.2998501064       -1.8716988814       -3.3403183501
 H        -10.7461050403       -0.4086352229       -3.0498536428
 O          3.8915102826       -1.4006908619       -7.0832382820
 H          3.0995289443       -1.8004070065       -6.6754663955
 H          4.4736607242       -2.1482764030       -7.2358036869
 O          6.1198436821       -2.5604153678        1.8677113512
 H          6.2073424385       -2.4013823160        0.9148000408
 H          6.3246324504       -1.7160125322        2.3059432998
 O          3.8857672172       -0.1370535058        2.8768507370
 H          2.9582278042       -0.3438456019        3.0859677738
 H          4.3897579081       -0.8666116542        3.2907475326
 O          1.0337664864       -1.6059081743       -3.5527679088
 H          0.6241420901       -2.3131276152       -3.0135734614
 H          1.8798909308       -1.3817586575       -3.1189269517
 O         -2.9229876938       -7.4033338058        1.1477624417
 H         -3.5803323652       -7.4188937958        0.4353529315
 H         -3.2947805297       -6.8594896816        1.8553742244
 O         -5.3279522271        2.6558379954       -2.5992845786
 H         -4.8881318662        1.7891501106       -2.4194715500
 H         -6.0969304879        2.7005465786       -2.0097604642
 O          0.5522135866        5.3423905173       -5.3481082783
 H          0.3492393537        5.4150269701       -4.4032806425
 H          1.3763873698        5.8071724698       -5.4888788446
 O         -7.4940072425        0.3784097553        6.5152511445
 H         -6.7075473978       -0.1364829180        6.2691269796
 H         -7.2044326030        0.9662474516        7.2146231853
 O         -3.9831998365        4.7341888790        4.5410588629
 H         -4.5894442072        4.3781544846        5.2085624604
 H         -4.5143413403        4.7497450396        3.7220203776
 O          5.1329962765        5.1486695816        0.9268860337
 H          4.8809615290        6.0330444708        0.6029285937
 H          4.4816333949        4.5714939027        0.4837489155
 O          8.9647928756        2.1271556417        0.2641113897
 H          8.6251878798        1.2003459124        0.2072698529
 H          9.0662591337        2.4590600222       -0.6381179496
 O          5.9184276922        2.3983303359        2.3016524955
 H          5.0037985996        2.7074051494        2.4606820221
 H          6.4745359476        3.1796053578        2.1222076917
 O          0.7314109031       -0.0802465926       -6.7337709700
 H          0.0006377484       -0.5846709866       -6.3058959722
 H          1.2241452485       -0.7158889056       -7.2577067106
 O         10.9955498950        1.4663638429        1.7524300438
 H         11.5343418947        2.2102325579        2.0222261785
 H         10.2479395880        1.8350588488        1.2136751502
 O          3.4302538860       -0.7823342273        6.2223282462
 H          3.8511683346        0.0796471245        6.1041965734
 H          3.9128632383       -1.3741071164        5.6122877945
 O          7.0900724794       -0.5222123247        5.6151711961
 H          7.2484345926       -0.5907042502        6.5559922735
 H          7.7963451017       -1.0396724542        5.1652919246
 O          3.9082823694        7.3139126323       -0.1546773558
 H          3.1228853761        7.1342838397       -0.7097846251
 H          3.5317813881        7.5279869988        0.7175451578
 O         -5.6480262441        3.4153494458       -5.0941904010
 H         -5.5159066758        3.0797955247       -4.1742142471
 H         -5.1745962708        4.2538743307       -5.1086785300
 O         -4.9182485502       -3.1063345403       -6.8335126022
 H         -4.4848605928       -2.2394880133       -6.8748265723
 H         -5.8164467303       -2.9176490997       -6.5171533831
 O         -0.0171320983        2.6163767317       -3.6409498425
 H          0.0853438011        2.6181199693       -4.6189815057
 H         -0.1368302748        3.5513458431       -3.3567758934
 O         -1.3944329274        5.5592269447        3.4519603963
 H         -2.0782345225        5.2390168238        2.8161267598
 H         -1.8448123222        5.6375911225        4.2946418936
 O         -0.2315308097        7.0739694048        1.5005442116
 H         -0.6275994876        6.6699099379        2.2922007045
 H          0.6691175936        7.3116965251        1.7380335387
 O          5.9423273323        6.1871580201       -1.7933107154
 H          5.8129729587        5.2636250793       -1.5076526021
 H          5.2846073703        6.7213118684       -1.3258348888
 O         -4.1924286384        0.4372527606       -1.7626382736
 H         -3.4291212593        0.8035994174       -1.2737387171
 H         -3.8008191681       -0.0078973413       -2.5332134805
 O         -0.9244599465        4.9631387584       -0.1870460376
 H         -0.3241802861        4.1860408280       -0.1344393866
 H         -0.5313766720        5.6754667432        0.3474017270
 O          3.9944823362       -1.1940383202        0.3607258718
 H          4.8892251015       -1.1618897192       -0.0115194478
 H          4.0187954444       -0.6962243342        1.1980052521
 O          7.4862543076       -5.3949033244       -0.3633478006
 H          7.9850676302       -4.6205901315       -0.6894641670
 H          7.0638078046       -5.7929086263       -1.1321341062
 O         -1.7085069915       -0.6997819496        6.2949536885
 H         -0.7418100138       -0.6941928597        6.1870810259
 H         -1.9100323544        0.1024594809        6.8196106113
 O          2.6322309061        4.7984930559       -3.1810584548
 H          3.3923611260        5.3145661503       -3.5249816431
 H          2.5114832587        4.1122047557       -3.8674844110
 O         -3.4974753802        2.0350468873       -6.0698476909
 H         -2.9273888832        2.7494965951       -6.3884827513
 H         -4.3637698602        2.4491121951       -5.8931215883
 O        -11.8184729469       -0.8850887321        1.7451832209
 H        -11.3676942380       -1.1795584896        0.9152309251
 H        -12.7571774220       -0.8891179420        1.5640568932
 O         -5.5974470552        2.8488549514        5.6586836156
 H         -5.3750218841        2.2890549026        6.4266824826
 H         -5.2788764403        2.3315008987        4.8823738588
 O         -5.1162553032        5.9245982609        0.4033683273
 H         -5.5449632059        5.7098259618        1.2429583441
 H         -5.6427414335        5.4787610154       -0.2838110061
 O         -0.6909640216       -4.0424136064       -5.5504910301
 H         -1.6126275857       -4.3427268064       -5.5416862911
 H         -0.2466463403       -4.5252629025       -4.8235623501
 O          5.3793308979        3.1486441822       -5.2971725594
 H          5.1574579903        2.9966395022       -4.3449859439
 H          4.5049202648        3.3032812004       -5.6845463888
 O         -1.8753020734        4.3243367218       -6.3038792715
 H         -2.4474958967        4.6822018901       -5.6069375105
 H         -1.0253906100        4.7702078990       -6.1663592933
 O          3.2098854600       -5.5761988680       -3.9267432896
 H          2.9978626053       -4.7996466813       -3.3666439281
 H          2.3480184095       -5.9743785959       -4.0821730442
 O         -5.1967824221       -1.2028197526       -3.7953156307
 H         -5.1790303920       -1.9615778834       -3.1754017640
 H         -5.8582126268       -0.5899261712       -3.4353896610
 O          7.9381141552        2.6875147841       -4.2305456807
 H          7.1604311458        2.8356943351       -4.7880112599
 H          8.5452062929        2.1128346440       -4.7058565667
 O         -9.8464862774        1.1932626027       -2.7138061985
 H         -9.4693443823        1.9991181525       -3.1039324075
 H        -10.0001188718        1.4078726307       -1.7803296307
 O          2.7349675941        6.9943233696        2.3237515519
 H          3.4834540754        6.6565620683        2.8383845948
 H          2.3469685328        6.2034609336        1.8800339382
 O          0.0199929701        3.9151900720        5.5345015183
 H          0.2678161691        3.3595098802        6.2929739781
 H         -0.7909314507        3.5178495253        5.1811558074
 O          0.2348555613        2.4975744707       -6.2679989230
 H         -0.5601626896        2.8920940693       -6.6412662954
 H          0.3329194234        1.5866337326       -6.5945360031
 O          4.9855957985        1.2374747623        4.9410031621
 H          5.7977813006        0.7383237863        5.1046399425
 H          4.6062130543        0.8950831610        4.1031940826
 O         -0.4976152447       -6.6224108407        0.2952887209
 H         -0.6319670596       -6.7157529449       -0.6608894508
 H         -1.3363198525       -6.9415521858        0.6932171103
 O          4.9822339571        5.7342584632        3.4672162562
 H          5.6855700949        6.3637366256        3.6258989510
 H          5.1056825817        5.4044166749        2.5409625840
 O          8.9973275790        3.7660144464       -1.9213306594
 H          8.9318489286        4.6654737387       -1.5015534456
 H          8.6867706272        3.8258390577       -2.8332680933
 O          6.1207264091        3.7645974312        5.0318637554
 H          5.5982145766        4.4202511633        4.5403708411
 H          5.7123763675        2.8988109653        4.8763178969
 O         -2.9348347233        4.6167143056        1.5265666542
 H         -2.2421570638        4.6790642885        0.8296385675
 H         -3.6860385123        5.1214048739        1.1795611517
 O          7.5058334904        1.0558559066       -2.0654351267
 H          6.7394516372        0.5624856686       -2.4257435034
 H          7.7214494383        1.7138132148       -2.7487127844
 O         -1.5887949441       -6.7145296329       -2.2095955977
 H         -2.1833832986       -7.4263584451       -2.4423588810
 H         -2.1414885007       -6.0157444775       -1.7827461208
 O         -2.1210833859        1.7213056828        7.3789336720
 H         -2.1978676247        2.1818331308        6.5115457607
 H         -1.2556683616        1.9654137344        7.7286229641
 O          3.3532657830        3.0011970662        2.5862099745
 H          3.0806329184        3.8300410803        3.0167755861
 H          2.8243575730        2.3180294463        3.0474244801
 O          9.2778696836        0.8049958339        3.7564279055
 H          9.6786232204        0.2258590185        4.4055128726
 H          9.9308916382        0.9224523297        3.0369664994
 O          1.6378805478        4.9739937021        1.0153642595
 H          1.1655299015        4.3185450379        1.5659478793
 H          2.2821548631        4.4865634457        0.4649626378
 O          8.3380175082       -4.0432262780        2.1176893768
 H          7.4622094424       -3.5990243688        2.1071365227
 H          8.3489830648       -4.6259876558        1.3545437588
 O          0.6616185439        2.0593763790        7.4505970726
 H          1.5762202816        2.3580048492        7.4834907872
 H          0.6886787392        1.2237028452        6.9325055908
 O          1.0602293429       -5.8274061435        3.5909719712
 H          1.2810557899       -6.5862942782        2.9925185269
 H          0.1895650687       -5.9849100329        3.9807824200
 O        -10.3282888100        1.3583651053        2.4541862222
 H        -10.9453631180        0.6287568403        2.2855797586
 H         -9.5908543355        0.9695771396        2.9500222577
 O         -7.8396117911        3.1819199681        4.2805753374
 H         -8.6782920150        3.1305263778        4.7365257815
 H         -7.1305871985        3.0456324786        4.9482342019
 O         -0.6510624118        5.0651888529       -2.8723938646
 H         -0.7696969702        5.1291683947       -1.8998555155
 H         -1.5142339245        5.2479498849       -3.2642132510
 O         -9.7628110259       -1.9899971594        3.2141134638
 H         -9.7244031236       -2.9533395737        3.0077677301
 H        -10.6230431760       -1.6873812277        2.8926389308
 O         -3.4173800597       -2.6922258059        5.5758702631
 H         -2.7189821841       -2.1423561494        5.9696749396
 H         -3.2727785882       -2.6206139579        4.6128434024
 O         -5.4441274133       -0.9596927814        5.2268237813
 H         -6.1088376024       -1.5163490024        4.7882251767
 H         -4.7014948394       -1.5698833512        5.4277652453
 O         -3.7048404422       -2.0604466402        2.9801285963
 H         -4.5858606468       -1.7585184653        2.6879727117
 H         -3.2735698331       -2.5397531904        2.2543211442
 O         -9.8338977150        2.1162426684       -0.0789144178
 H         -9.9336611919        3.0648168629        0.0291560267
 H         -9.9791608359        1.7446509124        0.8232991600
 O         11.1390142554        2.0947836166       -2.3864156210
 H         10.5343674400        2.8201656475       -2.1620362358
 H         10.7756355228        1.6960321261       -3.1909339346
 O          1.6926251079       -7.4824367658        1.6666186997
 H          2.3825913029       -6.9215914243        1.2786811230
 H          0.9099848687       -7.3645218236        1.0998402771
 O          7.0181739578       -4.6223064500       -4.6271078476
 H          6.9107391667       -3.7740999564       -4.1153802542
 H          7.8843689598       -4.5931987540       -5.0301914039
 O          2.6843581546        3.0171755782       -5.2229031178
 H          1.8820576246        3.1230643519       -5.7525633914
 H          2.7416419521        2.0585094576       -5.0289775209
 O          8.2481246928       -0.3827961590        0.5015932955
 H          7.6443769184       -0.2221976000        1.2622494299
 H          8.9661549199       -0.9335558909        0.8822267673
 O          5.0858912600       -1.9492720272        4.4470034035
 H          5.8351973315       -1.4598675816        4.8265143435
 H          5.4046020660       -2.8690610342        4.3286941652
 O          9.9122790335       -1.9583961873        1.8348545064
 H          9.3713420885       -2.7868256057        1.8548533068
 H         10.6940091529       -2.1773453725        1.3103797269
 O          4.5647995577       -4.1197584130       -5.8590535218
 H          5.4675000973       -4.3682967556       -5.6081486955
 H          3.9878223601       -4.7316607447       -5.3695675065
 O          7.7984910804        4.1897115002        1.5574040515
 H          8.2636708063        3.4673000546        1.0949323684
 H          8.1721674545        4.1672803223        2.4683493815
 O         11.3993153369        0.0826956666       -0.6361813196
 H         11.4658039053        0.8529610657       -1.2415112951
 H         11.3294999453        0.4493989179        0.2604370947
 O         -9.7165775742       -4.4191899901       -0.1280714667
 H         -8.8193375075       -4.7749349487       -0.3218211026
 H        -10.3369079991       -4.9382335492       -0.6385652789
 O         -6.9413495041        0.8416634744       -5.6769756572
 H         -6.6193616071        1.7355441869       -5.8085783146
 H         -7.1083880107        0.7497941435       -4.7229789503
 O          5.9520431431       -4.4749939567        4.2507990999
 H          6.0694591687       -4.9089431085        3.3921549742
 H          5.1270767704       -4.8241764025        4.6173028606
 O          4.8316759425        5.8447771228       -4.2555719520
 H          5.2663163383        5.1013091068       -4.6908990173
 H          5.3697860652        6.0806316105       -3.4779646017
 O         -7.7497457026       -5.1723420518       -3.4439419773
 H         -8.1390671949       -4.2557937279       -3.5353584261
 H         -8.2992038307       -5.7477343530       -3.9741517918
 O         -5.8733433266        4.4384517893        2.6062170369
 H         -5.5514710281        3.7186911641        2.0163939141
 H         -6.5335697996        4.0413364740        3.1875104950
 O         -8.1819767218        0.0985865468        3.9113031290
 H         -8.7317174813       -0.7000229699        3.8718884708
 H         -8.0505552533        0.3005344222        4.8513474925
 O         -7.0684583173       -1.9266862881       -5.5335056447
 H         -6.3132068562       -1.7127547505       -4.9375217644
 H         -7.2745752628       -1.0784572201       -5.9469181396
 O         -8.2071901260        3.3342484278       -3.4335219924
 H         -7.6186780950        3.3897991325       -4.1929071935
 H         -7.7615966105        3.7952470066       -2.7065778699
 O         -7.3577744100        0.2670236902       -3.0086953393
 H         -8.3317427454        0.3011452760       -3.0073166457
 H         -7.1132131586        0.9749864010       -2.3946208855
 O         -8.7252358986       -2.7493051421       -3.5899429815
 H         -8.1694522065       -2.3701051429       -4.3069387296
 H         -8.3682004921       -2.4476679671       -2.7247838883
 O        -10.4673904638       -1.7128041283       -0.3744826817
 H        -10.1453826553       -2.6262143342       -0.3190283933
 H        -10.7465704647       -1.5711077845       -1.3104991602
 O         -8.2073598403        4.1389555495        0.9505981846
 H         -7.9852158189        4.7500077454        1.6555209220
 H         -7.8647538808        3.2622314385        1.2459665568
 O         -5.3433569320       -3.1839415512       -2.0302590663
 H         -5.0224178396       -4.0135486897       -2.4299603469
 H         -4.7023386037       -2.8581343844       -1.3702997361
 O          5.4802187780        0.3461589485       -5.7690889952
 H          4.8208142999       -0.1734003433       -6.2778278921
 H          5.3056292811        1.2915745505       -5.8847262452
 O          2.9662443508        2.7754518377        6.0196070279
 H          2.9567217567        3.6597662067        5.6219200531
 H          3.8242193995        2.3849126253        5.8079942937
 O         -7.2804717488       -2.8450059280        4.2496233053
 H         -7.4559392046       -3.0059167843        3.3038579227
 H         -8.1356210460       -2.8897200482        4.6805546406
 O         -3.3675713479       -4.3635342404       -5.0885561534
 H         -3.9452904115       -4.9782055516       -4.6145559424
 H         -3.9337470824       -3.9283264323       -5.7705269194
 O         -5.0512862007       -5.5699776388       -3.2964543983
 H         -5.9963063231       -5.4976165056       -3.5118466478
 H         -4.9683831752       -6.2339989619       -2.5898718222
 O         -3.7769209202       -0.7126860111       -6.1400931604
 H         -3.7297233150        0.2434069297       -6.2886288143
 H         -4.2055564627       -0.8186928076       -5.2732751330
 O          8.8718817837       -2.0911364821        4.4076536436
 H          8.4686860116       -2.9567804447        4.2895530819
 H          9.3191760805       -1.9033445003        3.5654499938
 O          6.0682069535       -6.0061555225        1.8560766081
 H          6.4483873587       -6.8460863479        2.1124585764
 H          6.5452802158       -5.7207062343        1.0476394177
 O         -7.2928241492       -5.4361880798       -0.7595138089
 H         -7.3976790959       -5.3098234563       -1.7203151434
 H         -6.6120587388       -4.8201468737       -0.4506641158
 O          9.3539782214       -0.8067640414       -2.2007527389
 H         10.0585107944       -0.5658192877       -1.5707096588
 H          8.6166644748       -0.1769036101       -2.0145251082
 O         -9.5714804656       -4.5811567943        2.6326417604
 H         -9.7268569877       -4.5253669498        1.6744442483
 H         -8.6707834248       -4.9318305115        2.7151522521
 O         -5.0082660448        1.2687906024        3.5924322377
 H         -5.1922249095        0.4527002560        4.0897984056
 H         -5.7541781445        1.4210969941        2.9844615916
 O         -0.9539854157        7.7360236582       -1.1287883761
 H         -0.8737880399        7.7801599926       -0.1669250200
 H         -0.0910245149        7.4035133927       -1.4286338175
 O          5.6954105820       -5.9406750398       -2.6721368645
 H          6.2521041374       -5.5981848584       -3.3943591942
 H          4.8226067345       -6.0704665745       -3.0797634340
 O          2.2249637230        4.7979569310        4.3139589617
 H          2.1802671574        5.7436005454        4.1658454606
 H          1.3545790578        4.5296202021        4.6810467863
 O         -1.2619536388       -1.4198133339       -5.6323618784
 H         -1.0451444826       -2.3763847715       -5.6046571095
 H         -2.1346140736       -1.3145781110       -6.0597627201
 O         11.7155599354       -2.5622788225       -0.1728662657
 H         11.7128434672       -1.6251837777       -0.4478960097
 H         12.6205449679       -2.8673441953       -0.2262811549
 O         -4.7554435322        0.9809194413        7.3981300489
 H         -4.6450911198        0.2396690848        6.7927358393
 H         -3.8611974514        1.2663740111        7.6396223840
 O          8.4187314961        5.9167421966       -0.5665879108
 H          7.5967951783        6.2346847997       -0.9795736658
 H          8.1727709622        5.5299474140        0.2914612899
 O          1.5524718899       -2.9324817984        5.8289597185
 H          1.9980207183       -2.4648925430        6.5371483070
 H          2.1820636075       -3.6207394779        5.5097929458
 O          8.5975001496        3.5869075666        3.9946220524
 H          8.7910992588        2.6399447015        4.0121429320
 H          7.7557975343        3.6956378320        4.4868621464
 O          4.9002904242       -4.1172179813       -0.9276956803
 H          5.5139948325       -3.3742202165       -0.8355738216
 H          5.2972226304       -4.7608402461       -1.5553219932
 O          1.7135555735       -2.5903762658       -5.9789016903
 H          1.4585438904       -2.2273691965       -5.1066912703
 H          1.0683114261       -3.2750077171       -6.1702073819
 O          7.7603103054       -1.0209168524       -5.3049282218
 H          6.9835746248       -0.5198279083       -5.6113895665
 H          8.4535892798       -0.3786346533       -5.1045578230
 O         -2.0195934929        1.5707886330       -0.6513627821
 H         -2.3877085390        2.4022356391       -1.0156649519
 H         -2.1287066247        1.6658131504        0.3189827596
 O         -2.3318545912        2.6911159192        4.8990950000
 H         -2.6507005373        1.8867589739        4.4641510511
 H         -2.9532618182        3.4257731464        4.6983291617
 O         -1.3918543519       -1.3831571709       -0.4467422844
 H         -1.0398793029       -0.5785494654       -0.8488792746
 H         -1.1295081622       -1.3585058611        0.5039799360
 O          0.9405382840        0.6575275371        1.4872704095
 H          1.7313763456        0.2914289015        1.0841260786
 H          0.7061664507        1.4175245654        0.9368495655
 O         -0.7850325438       -1.2315946680        2.0568685002
 H         -1.4217997424       -0.6498773939        2.4810844121
 H          0.0084381448       -0.6698424966        1.9343711054
