  102
       -167.76439500
 H         -1.2915848732        1.2728502073       -0.5282343664
 C         -1.3873447191        0.6463763894        0.3589439248
 H         -1.6941725522        1.2703430005        1.2002262137
 C         -0.0546607557       -0.0111882457        0.6995713376
 H         -0.1689132089       -0.6333002044        1.5872038440
 H          0.6779315772        0.7650772970        0.9069607095
 O         -2.3917893159       -0.3309170540        0.1663854528
 H         -2.5285819879       -0.5116191204       -0.8045209001
 N          0.4138902650       -0.8492406156       -0.4139853263
 H          1.2877270478       -1.3541631576       -0.1309423688
 H          0.6053386146       -0.2589288603       -1.2563634643
 H         -0.2903775757       -1.5827825586       -0.6666063449
 O          3.2542915195        0.7270947582       -3.1792299041
 H          3.8555789307        1.0962762015       -2.4940986542
 H          3.6273809906        0.9594979930       -4.0301063597
 O          5.5989657747       -0.6987289753       -0.0543467931
 H          5.2636509388       -1.5379073520       -0.4182104451
 H          5.7782272333       -0.0918345870       -0.7836146769
 O          5.2989713872        0.3289511677        2.4553117083
 H          6.1139742881        0.3143256420        2.9582424819
 H          5.4795417980       -0.1348230468        1.6146735012
 O         -4.9917752706        0.0541680868        0.8735402138
 H         -4.0326620064       -0.0556071226        0.7330038624
 H         -5.0827723110        0.9046017995        1.3219446079
 O          4.1934503523       -2.9248986442       -0.7723852498
 H          4.5043031149       -3.8285334161       -0.7089948493
 H          3.4821499618       -2.8225157352       -0.0948462629
 O          0.2630636126       -3.0342382723       -3.5718895291
 H          0.5636711786       -3.7543691148       -4.1265539670
 H          1.0664295301       -2.6037115110       -3.1976178864
 O          0.6945813196        0.6174244925        4.0061591988
 H          0.4252155214        1.4988138417        3.7002748555
 H         -0.1235921932        0.1034408784        4.1000204031
 O         -0.9961378992       -0.6381030118       -4.0714525612
 H         -1.8074641130       -0.6968754452       -3.5314924460
 H         -0.6266292487       -1.5350783054       -4.0898870150
 O         -4.7304708181       -2.7667327234        0.9010562527
 H         -5.0995298865       -1.8759182332        0.9762423328
 H         -3.9491966891       -2.7908982816        1.4810047425
 O         -2.5832159013        1.9383638179        3.3018757582
 H         -3.2604018340        2.2699975628        2.6918933500
 H         -1.7988496377        2.4951063883        3.2042550873
 O          1.9618469770        2.5351761668       -0.8240288064
 H          2.4222868852        1.7041464385       -0.5646755179
 H          1.2648585895        2.2684717019       -1.4283660685
 O         -3.7837699112       -3.2039588862       -1.4913927763
 H         -4.1812551829       -3.0503180402       -0.5868423362
 H         -4.2572943721       -3.9478238334       -1.8643201912
 O         -3.0696560062       -0.7404351763       -2.3292620874
 H         -3.4150651700       -1.6446179325       -2.2175429999
 H         -3.8663015097       -0.1513402446       -2.2684561157
 O         -0.1061682913       -3.7819723697        1.2371680377
 H         -0.4289345131       -3.7910293734        0.3234609802
 H         -0.8385016566       -3.3884391923        1.7438303504
 O         -3.7668802403        3.2041664461       -1.2014893483
 H         -4.0279604305        4.0166341486       -1.6382238324
 H         -2.9822113551        2.8758638085       -1.6873792190
 O          2.9472757624        0.2210333900        0.0326246248
 H          3.8750811822       -0.0081013068       -0.1147090006
 H          2.8070088611        0.0545738270        0.9852294694
 O         -0.0432079872        3.1564963999        3.1170280355
 H          0.0982730122        3.7195569866        3.8806885693
 H          0.6903299259        3.3550025549        2.4939718029
 O         -1.0941832660       -2.9655067470       -1.2059006362
 H         -2.0564880519       -3.1046408140       -1.2859760565
 H         -0.7054264848       -3.1293628820       -2.0815529179
 O         -2.2683531831       -2.3091737031        2.0761191376
 H         -2.2587438538       -1.6518742564        1.3575898165
 H         -2.1602906008       -1.7955753230        2.8944460715
 O          4.6120357205        2.5814389035        0.9810985046
 H          4.8387899704        1.8713849033        1.6047162720
 H          3.7613291582        2.9390078434        1.2695605286
 O         -4.4531936262        2.7611922695        1.4235803454
 H         -4.1537038166        2.9324776465        0.5114120096
 H         -5.0969008771        3.4376369460        1.6388817516
 O          2.6480853095       -0.4919063387        2.6079038188
 H          3.5200189678       -0.2288071375        2.9295196125
 H          1.9733796296       -0.0914220379        3.2002494099
 O         -5.1121454178        0.7964235587       -1.7612197007
 H         -4.7905796983        1.6994017593       -1.6212222820
 H         -5.3155068388        0.4499605667       -0.8714392014
 O          5.1241107511        1.6767010200       -1.4730391180
 H          5.6840390662        2.3555007146       -1.8514379874
 H          4.8533594732        2.0284738646       -0.5870317494
 O         -1.8080697148        2.2248472126       -2.7601285147
 H         -2.2317349293        1.7113281977       -3.4526859502
 H         -0.8976703026        1.8929227897       -2.7106935333
 O          0.5718177715        0.8068018882       -2.5856451525
 H          1.4870167122        0.8290436280       -2.9134997661
 H          0.0558158212        0.2438896028       -3.2270368267
 O          2.0095411262        3.7391724896        1.4804962564
 H          2.1690118116        4.6735320597        1.3384501348
 H          1.8963283791        3.3389317100        0.5805421815
 O          2.3198082164       -1.7904067898       -2.4561450821
 H          2.6996611724       -0.9422036899       -2.7307391119
 H          3.0146803564       -2.2477776690       -1.9586291387
 O         -1.8516293176       -0.4966777182        4.0825035169
 H         -2.2159023483        0.3679931958        3.7867314451
 H         -2.2002664688       -0.6511331763        4.9615833893
 O          2.1595452486       -2.4958070292        0.8644745428
 H          2.3671372983       -1.9585142711        1.6482712922
 H          1.4004565107       -3.0804202575        1.1022024663
