  114
       -193.39257932
 O          4.4921642109        0.1201282626       -1.5464945819
 H          4.8139796848        0.9011696426       -1.0410344512
 H          4.7016627182       -0.6756225867       -1.0318084010
 O          3.4667203253        0.6039964290       -4.0312599722
 H          3.9349483083        0.4658814067       -3.1843042489
 H          4.1365704563        0.6269230152       -4.7146534503
 O          3.0566808783        4.1237828471       -1.3916825630
 H          2.5956034553        3.6804176426       -2.1295977339
 H          3.3883621769        4.9540657724       -1.7340853819
 O          1.8340751832       -1.6685566824       -0.7435814010
 H          2.2793984345       -1.3449949589        0.0628886766
 H          1.5491066865       -2.5858151169       -0.5784471435
 O         -3.9012833320        0.2979763145       -2.9401399459
 H         -3.7551832371        1.1711185089       -3.3218786648
 H         -3.6564144015        0.4063671337       -2.0066896923
 O          1.6988748971       -1.4312329663       -3.4582007843
 H          2.3517713296       -0.8128528584       -3.8242619334
 H          1.8564346097       -1.4241047475       -2.4975824054
 O          1.6662479979        2.7125983697       -3.2912612637
 H          0.7250962734        2.4963425507       -3.1434861794
 H          2.0275142851        2.0819211071       -3.9267928226
 O          1.9713077923        0.9273272524       -1.2289713418
 H          1.9050658357        1.4935051008       -2.0147409441
 H          2.8737363580        0.5503308480       -1.2543783694
 O         -0.2831084153       -0.0017294814        2.2378723780
 H         -1.1005927696        0.3546521800        2.6542092450
 H          0.4509965438        0.5395309536        2.5596881059
 O          5.0758815174       -2.2257336394       -0.1778149879
 H          5.6649637206       -2.7374750644       -0.7337728182
 H          4.3916434696       -2.8376069454        0.1386362231
 O          3.2949855794       -4.2636651522        0.7039560611
 H          3.6470155754       -5.1550509087        0.6850179740
 H          2.4226340049       -4.3037118910        0.2588533270
 O         -0.3246179483       -3.2996836508       -2.6147692255
 H         -1.1478165859       -2.9840855944       -3.0069849463
 H          0.3896703108       -2.8551423033       -3.0888590046
 O         -2.5656258256       -1.8530106422       -3.7895180486
 H         -3.0642058589       -2.3384186585       -4.4475697165
 H         -3.1443144316       -1.1057448724       -3.5050163066
 O         -2.5235635964        0.9176749231        3.3540838641
 H         -3.1487492286        1.5230909335        2.9168459259
 H         -3.0388873320        0.1235623166        3.5938727600
 O         -0.4985219250       -0.0970612558       -4.2600910797
 H         -1.2223978410       -0.7430509577       -4.2545410773
 H          0.3117478043       -0.5991921250       -4.0348961412
 O          1.9384457230        1.6045960771        2.6835786003
 H          1.7348609176        2.1431889219        1.8793462392
 H          2.8646844688        1.8279916455        2.8804566630
 O         -0.7208092724        1.7130967957       -2.4030841978
 H         -0.7042002223        1.0506693033       -3.1430754343
 H         -1.5728011174        2.1825014095       -2.4757660165
 O         -1.1990380655        2.3961845064        0.7272095860
 H         -1.1549185274        2.6230609632        1.6790259371
 H         -0.3162403607        2.6470886320        0.3984834141
 O         -0.6171934590        2.9303948090        3.3122664058
 H         -1.2063788506        2.3502084848        3.8084709991
 H          0.2881790696        2.6345830296        3.4621790626
 O         -0.1641453646       -2.6976489663        1.8870005927
 H          0.5552194124       -3.0001906790        2.4578342269
 H         -0.2102385186       -1.7315288240        2.0253521117
 O          1.4259171166        2.8363503001        0.4144743738
 H          1.6577454190        2.0648808337       -0.1720987253
 H          1.9151089179        3.5801478734        0.0424388240
 O          0.7960717535       -4.1168898374       -0.2852844460
 H          0.2282475666       -3.7980110052        0.4358887552
 H          0.2910214074       -4.0463292238       -1.1171364203
 O         -3.3547764279        3.7714343207       -0.1143617780
 H         -3.9178392413        3.5355993876        0.6335759624
 H         -2.4647833871        3.4809385034        0.1616138761
 O         -3.1239135900        2.9812064188       -2.6480241776
 H         -3.3186812701        3.2595029924       -1.7230547908
 H         -3.1269118340        3.7852263618       -3.1684443183
 O          4.9078493901        2.3666654729       -0.2090057879
 H          4.7528758979        2.3642163254        0.7488569366
 H          4.3037849389        3.0225113809       -0.5910252070
 O          5.3390481846       -0.4567106190        2.1266566014
 H          5.8816922700       -0.7656665982        1.3976800601
 H          4.4222847921       -0.6980731471        1.8811931926
 O         -2.8037317106       -3.4235434431        2.3165509820
 H         -1.8596156735       -3.2466910093        2.1809351136
 H         -3.1275018876       -2.7340285647        2.9206955471
 O         -4.6182865695       -3.1387673721        0.3842574572
 H         -5.0798256087       -3.9628145298        0.2253523099
 H         -3.9208088330       -3.3375362534        1.0523122227
 O         -5.8535781819       -1.2773599004        1.9315791768
 H         -5.9386274214       -0.4669466254        1.4086493625
 H         -5.5377730275       -1.9690724746        1.3152457910
 O         -4.4742824267        2.5599553471        2.2349156693
 H         -5.0071393950        3.0166055505        2.8868308930
 H         -5.0764904211        2.0123019049        1.6961899828
 O          4.6317827341        2.0626786200        2.5643794574
 H          5.2556452790        2.5368649919        3.1146197574
 H          4.9880402715        1.1465703533        2.4602755061
 O          2.3387954299       -3.1456450330        3.0077495104
 H          2.8308355464       -3.3800029309        3.7954076766
 H          2.7610786546       -3.6036731864        2.2527970519
 O         -5.7223599764        1.0462072923        0.3710679781
 H         -4.8185285814        0.9266022783        0.0116895581
 H         -6.2855075574        1.2952188021       -0.3631275646
 O          2.7114912359       -0.8028724541        1.6376904230
 H          2.3956270892        0.0462378315        2.0066843431
 H          2.4740081715       -1.5077429896        2.2620876937
 O         -3.9686075618       -1.3327793718        3.7306314967
 H         -4.3695343512       -1.5828085649        4.5637542950
 H         -4.7173407511       -1.2788413070        3.0704861614
 O         -3.1929110752        0.6714654394       -0.4029911846
 H         -2.4580035828       -0.0071673956       -0.4389443131
 H         -2.6952910196        1.4359818290       -0.0768544518
 O         -0.9381919768       -0.5662436533       -0.5220165271
 H         -0.5629267518       -0.3917841908        0.3511580853
 H         -0.4605907021        0.0237587392       -1.1202579498
 O         -6.2804691244       -0.6887698572       -2.0031582889
 H         -5.5265457998       -0.3144820089       -2.4890784372
 H         -5.8984431051       -1.3789307979       -1.4551906116
