  279
       -473.50452185
 O          0.2072284110        1.3367128810        3.7880789309
 H          1.1376016243        1.0691014236        3.7145434228
 H          0.0928752065        2.0143646848        3.0761046954
 O          3.6332295502        1.7687360663       -0.9374257897
 H          3.4858816275        1.4642647794       -1.8476682390
 H          4.3890737320        2.3840421589       -0.9967939870
 O          2.5932599987       -0.2772038905       -5.6653722634
 H          1.6221429757       -0.4531620984       -5.6823116546
 H          2.6795031804        0.6325610773       -5.9676969938
 O          4.1565208863       -3.4799417412       -1.4762729219
 H          3.2922934045       -3.3506914966       -1.0198790345
 H          3.9577853722       -3.8257047238       -2.3485731089
 O         -1.5970044617        2.7761766743       -2.8934952715
 H         -0.6847220242        2.8114016228       -2.5497593336
 H         -2.1009566268        2.2741974113       -2.2203595430
 O         -2.8914907609        3.6759144331        0.1241366597
 H         -3.0651285813        4.3106474326        0.8388626487
 H         -2.6944050035        2.8105285377        0.5476677976
 O          1.8011567053       -4.5702973475       -4.1818127914
 H          0.9686638494       -4.2036205884       -4.5174676516
 H          2.4793544708       -3.9003514527       -4.3616609299
 O          3.4336512560        5.3281461657        0.0919936360
 H          3.1791143628        4.5244916607        0.5899711180
 H          2.7173614160        5.9587924759        0.3144929273
 O          2.6895411851        0.5960821793        3.0283026851
 H          3.1880844075        0.6731352921        3.8695007397
 H          3.3488736463        0.7397223254        2.3292836928
 O          2.6346234077       -6.4470340331        0.7696167839
 H          2.3287641300       -6.3428734731       -0.1424183065
 H          3.5490378567       -6.1178487583        0.7816323037
 O          4.8057422342       -0.8917555971       -1.1713629225
 H          4.7400833840       -1.8552635389       -1.2748072182
 H          4.3768300559       -0.5019992593       -1.9582822243
 O         -2.0883494627        1.5527478416        1.5224873697
 H         -1.2197455452        1.9799289953        1.4573845302
 H         -2.4335683580        1.8238163946        2.4014389711
 O          0.8545278384        0.7871518075       -3.2506414359
 H          1.4011465435        1.3091701337       -3.8833473621
 H          0.7220282316        1.3975232274       -2.5088923910
 O         -2.7402974489       -2.1951706877       -0.8555055320
 H         -3.3149238269       -1.6198674861       -1.3936393114
 H         -2.8133301103       -1.8683529448        0.0639506783
 O         -0.6682942520        4.9252292727       -0.6708017086
 H         -0.9342817345        5.3267922858       -1.5130092815
 H         -1.4733129531        4.4734144694       -0.3363548045
 O         -1.0807591536       -2.5537549351        5.1560758297
 H         -1.0282473829       -2.0783663784        4.2993909507
 H         -0.9282239270       -1.8496970547        5.8047113181
 O         -5.6815172026        4.9885259176        0.4340895907
 H         -5.3453225708        4.6700070710       -0.4184076870
 H         -6.6207186806        4.7661922023        0.4631977077
 O         -4.7992101279       -2.6439854591        2.8078980071
 H         -4.5247469747       -3.5309154281        2.5236115798
 H         -4.2125372683       -2.0210213529        2.3238294491
 O         -2.7513927650        1.0676794490       -1.2370613064
 H         -2.6295469641        0.2748102516       -1.7789772891
 H         -3.4492263738        0.9105166295       -0.5873267637
 O         -4.6995715084       -0.8724915566       -2.1705367854
 H         -4.6909954592        0.0002742561       -2.6215178428
 H         -5.1575080794       -1.4850291276       -2.7864008291
 O         -3.8142923161       -2.1975861706        5.3272136082
 H         -2.8894861522       -2.4978408841        5.3149231964
 H         -4.2015371498       -2.4417511321        4.4679763004
 O         -2.0899207849       -0.8750537483       -3.2144836483
 H         -2.5957326158       -1.5867439849       -3.6286880178
 H         -2.1412197633       -0.1299741731       -3.8424008497
 O         -5.6118531785       -1.7446219682        0.1164613939
 H         -5.4714388097       -2.7158715183        0.1142172050
 H         -5.3428799409       -1.4348632382       -0.7761820537
 O         -1.2700581129       -4.1547431077        1.2229816249
 H         -0.4140767544       -4.3825937370        1.6432704864
 H         -1.1962174389       -3.2238002420        0.9619953411
 O         -5.3519202029       -4.3954729207       -0.1839155325
 H         -4.7506088457       -4.5465223236       -0.9379338607
 H         -4.8992521711       -4.7662623644        0.5873458597
 O          0.7705780330        2.8735136337       -1.5218478632
 H          1.5291897284        3.3799175788       -1.8828890819
 H          0.2732050527        3.5547960533       -1.0180039962
 O          4.7835210773        0.3748290816        1.3068285982
 H          4.9838726956       -0.2007659608        0.5480517520
 H          5.1920132021       -0.0539990101        2.0875992100
 O          6.5668716919       -1.7039532858        0.7463680422
 H          7.3048695930       -1.6207430218        1.3612898831
 H          5.8844146682       -2.2325569811        1.2109677524
 O          2.2731344927        2.4052273474       -4.8262432659
 H          3.0999860718        2.7078170175       -4.4255890257
 H          1.6801000757        3.1782284740       -4.8258047567
 O         -7.0725492223       -0.0495793846       -4.1235921703
 H         -6.3173771247        0.5581765764       -4.0886382676
 H         -7.5828028045        0.1116132412       -3.3153551622
 O          0.1696329637        3.0102477101        1.7539438673
 H         -0.0715030492        3.9154957586        2.0638410674
 H          1.1145270040        3.0543726006        1.5261754518
 O          1.5614967983       -5.4878764020       -1.6801480866
 H          0.6370548405       -5.7618039599       -1.5926209656
 H          1.6849441114       -5.2521008762       -2.6254076321
 O         -4.8392018925        0.7664759734        0.7608159856
 H         -5.5166395159        1.2806053486        0.2812708806
 H         -5.0774326933       -0.1682029978        0.6322856342
 O          9.2257643176       -0.4869874849       -1.1511465095
 H          8.7002208027       -1.3179223732       -1.2954314196
 H          9.9254662393       -0.4838073344       -1.8038982453
 O         -0.8917727280        3.7646134390        4.9857038450
 H         -0.2379137543        3.0591212436        4.9829137414
 H         -1.7098599802        3.3515729567        4.6461605029
 O          2.2525888419       -1.9041494040        2.3051341489
 H          2.3825448422       -1.0315503643        2.7370253402
 H          1.8540201237       -2.4680207490        2.9975245354
 O          4.7948005544        3.2223654513       -3.5745864169
 H          5.2393588886        3.4089264872       -2.7316614992
 H          5.4082309082        2.6658800608       -4.0657657628
 O         -7.4794379686        2.8182782036        3.4949941006
 H         -7.9100468947        2.7709479736        4.3481454746
 H         -6.9616502787        1.9730541003        3.3861677101
 O         -5.0365640077        3.9605978171        2.8517424607
 H         -5.2472483112        4.2133379285        1.9287443106
 H         -5.8803822234        3.7017868356        3.2466428470
 O         -2.2419885467        1.2143728250       -4.9314792110
 H         -1.8780933317        1.8876749818       -4.3135109339
 H         -1.5425716628        0.9808784543       -5.5491896721
 O         -3.6985073149       -4.9979285309        1.9560016436
 H         -3.5786674530       -5.7431021696        2.5443229192
 H         -2.8010220480       -4.6829909306        1.7082246720
 O         -0.7414664142       -1.0616716744        3.0017358037
 H         -0.2306315235       -1.3234106229        2.2158543822
 H         -0.4546694440       -0.1633126905        3.2689336275
 O          1.8135403988       -1.5273620180       -2.4611801014
 H          1.4766099400       -0.6775925614       -2.8426247851
 H          1.0430120358       -2.1191395372       -2.3581517092
 O         -7.2814437805       -1.6819386789        2.8042544569
 H         -6.4004031869       -2.1106525839        2.6873956138
 H         -7.6356003403       -2.0431177713        3.6172963958
 O         -2.9711113622        2.4600791186        3.8369045868
 H         -3.3157429607        1.7238906153        4.3885748979
 H         -3.7414471710        2.9807924901        3.5515856659
 O          1.8401808668       -3.3361398953       -0.1857673179
 H          1.6069999800       -4.1123472881       -0.7500361152
 H          1.7950490525       -3.6788371986        0.7278784179
 O         -0.4349651389       -2.9698267084       -2.0837571890
 H         -0.5616174508       -3.8951703765       -1.7809556184
 H         -1.1977385296       -2.4745036752       -1.7273721400
 O          5.7550267873       -0.8125548857        3.5466007947
 H          6.7165662013       -0.8733504451        3.4414966419
 H          5.4006962847       -1.6947493458        3.3437899129
 O          3.5614954280       -2.4241956482       -4.2429841202
 H          3.3587937718       -1.8410952864       -4.9901476270
 H          2.9927408043       -2.0756559896       -3.5139136889
 O          4.8463425022        3.0248585857        3.2525714243
 H          4.8909579654        3.9526518462        3.4857469247
 H          5.5662761176        2.8591918105        2.6071131595
 O          7.5860385380       -5.0000802356       -0.3163288020
 H          7.6475858515       -4.1656124239       -0.8159416913
 H          8.2154439106       -5.6083552687       -0.7016190616
 O         -3.5591529002       -2.9229960462       -4.6007106897
 H         -4.4981443257       -2.8166997069       -4.3348548928
 H         -3.5484191649       -2.7339703650       -5.5403468307
 O         -4.7683328565        3.4362150964       -1.8043940313
 H         -3.9972842092        3.3956809288       -1.2033998529
 H         -5.4705411986        2.9047343238       -1.3907540636
 O         -3.0908239650        5.6586959799        2.0505580122
 H         -3.7074929308        5.2053200052        2.6470599237
 H         -3.5915214603        6.3461721094        1.6080892106
 O         -6.0592091485       -2.4766349932       -3.7741233085
 H         -6.5638182159       -1.6916803072       -4.0862849047
 H         -6.6495090849       -2.9657910267       -3.1602095909
 O          0.7334492165        4.5964380951       -4.3381586264
 H          1.3407511877        4.8624352323       -3.6317127828
 H         -0.1209712620        4.9820489757       -4.1116161787
 O         -1.1009364531       -5.3866800278       -1.1648185725
 H         -1.9920163080       -5.3533275855       -1.5527644738
 H         -1.2009610665       -5.0842917000       -0.2383722570
 O         -7.5080081014       -3.5987167128       -1.8157784602
 H         -6.9003670014       -4.0793823507       -1.2375004157
 H         -7.9854324273       -2.9834394160       -1.2424205528
 O          2.8341682366        3.0078069012        1.3225613934
 H          3.4862997052        2.8863970432        2.0322412852
 H          3.1034772656        2.4744536963        0.5537627307
 O          9.0217059606        1.0677372574        1.0962721226
 H          9.7682777028        1.6679937171        1.0899439714
 H          9.0941181183        0.5166616825        0.2925164220
 O          6.5048391439        2.4082105176        1.2275229258
 H          7.3867992579        2.0177035249        1.1598500123
 H          5.8815971367        1.6588868579        1.0814357542
 O         -1.7649817917        5.4012589980       -3.1514827065
 H         -1.8754257092        4.4233432386       -3.1108863914
 H         -2.6243569935        5.7679254531       -3.3553743183
 O          4.3211324811        0.9377773354        5.0917578351
 H          4.5994216467        1.7776033249        4.6970122100
 H          4.9466324420        0.2721114798        4.7592307016
 O          6.1639956567       -1.9410846476       -3.8510490090
 H          6.5715910272       -2.4420791284       -4.5574536530
 H          5.1933260976       -2.1105576851       -3.9235892527
 O         -0.5833733088       -3.1914758424       -4.6973689016
 H         -0.5698536769       -3.0353122829       -3.7198744419
 H         -1.4801116666       -3.4665801342       -4.8971831264
 O          4.9987714332       -5.0518067697        0.5688829635
 H          5.9445799207       -5.2294133508        0.4508233317
 H          4.7505171841       -4.5394069193       -0.2252901705
 O         -0.0349091352       -0.6120424312       -5.4189508897
 H         -0.2495758519       -1.5498924245       -5.2608365307
 H         -0.0109361350       -0.1927446460       -4.5423283941
 O         -6.0176308568        0.6823756535        3.1742284211
 H         -6.5313511654       -0.1391543805        3.0371726487
 H         -5.4796366777        0.7996369209        2.3583257366
 O         -4.7169283613        1.3816117398       -3.6001763690
 H         -4.6570442072        2.1992481356       -3.0646486043
 H         -3.9594221173        1.3826586804       -4.1999372168
 O         -0.8356695276        0.0845952162        6.0447930166
 H         -0.5976734368        0.6172254479        5.2692126459
 H         -1.7567456175        0.2876468147        6.2272388201
 O         -2.9854113806       -1.1051832130        1.6047949015
 H         -2.2005128227       -1.1617656002        2.1905668974
 H         -3.0934450457       -0.1533114984        1.4550474267
 O          5.4959577321        3.7366090720       -0.9443241258
 H          4.9903483714        4.4738500998       -0.5722052683
 H          6.0363100321        3.3623363779       -0.2257151309
 O         -8.2120059728       -1.6084989106        0.0797238181
 H         -7.2184013092       -1.6329247282        0.1315749214
 H         -8.4822397733       -1.6032169854        1.0022840419
 O          1.9634602262       -0.7976892189        5.5299229747
 H          2.6793560017       -0.2158826508        5.8011048395
 H          1.1529105879       -0.4739985666        5.9375447563
 O         -8.1661796415        3.7675881326        1.0533010169
 H         -9.0482797504        4.1380912917        1.0812541015
 H         -7.9611926129        3.4483641030        1.9556404373
 O         -4.0597094923        0.4493918868        5.1504030347
 H         -4.8474684664        0.4933977292        4.5860507381
 H         -3.9209927135       -0.5121378510        5.3052611059
 O          3.7633711505        0.4015752438       -3.2780031722
 H          3.2669736450        0.1701903404       -4.0828523605
 H          4.6409576221        0.7011922562       -3.5927037206
 O          2.6432675123        4.5700085130       -2.3532803454
 H          3.4234583293        4.2678573912       -2.8306314194
 H          2.9549795958        4.9519341244       -1.5024884001
 O         -8.4964377201        0.3108378718       -1.7228396718
 H         -8.4399328711       -0.4266110045       -1.0680119693
 H         -9.4210116652        0.4078226236       -1.9507990235
 O          6.3116728266        0.8704775564       -3.9442898775
 H          6.5883970768        1.0350406415       -3.0118764550
 H          6.4333971915       -0.0811769455       -4.0761866107
 O          6.8224948015        0.9276960719       -1.3418900249
 H          7.6839956075        0.5015946481       -1.2582308549
 H          6.1561623898        0.2392042482       -1.1596380754
 O          1.2121543830       -4.6595131991        2.0705223302
 H          1.4335811011       -4.5257561834        2.9997427722
 H          1.6970475889       -5.4536415653        1.7393698674
 O         -0.4473533584        5.3272803372        2.8579844273
 H         -0.5616752591        4.9266638268        3.7470314949
 H         -1.3351523779        5.5804530201        2.5660908090
 O          7.5725336100       -2.5107500213       -1.5307944246
 H          7.0048911257       -2.3131715504       -2.2972688216
 H          7.0672758142       -2.2258228815       -0.7282805306
 O         -6.7722754997        2.0491329138       -0.5670967454
 H         -7.3281487564        2.6366376504       -0.0314880866
 H         -7.3732883911        1.4619168146       -1.0594826224
 O          4.7172582515       -2.9517818004        2.2186844526
 H          3.7829401268       -2.6515245203        2.1965242623
 H          4.7518310344       -3.8291924369        1.7898327191
 O          1.4513134840       -3.2885517281        4.4803935085
 H          1.8678282486       -2.5767964757        4.9908312853
 H          0.5137941175       -3.2493981356        4.7526914461
 O          1.1118492121        6.4441240982        0.7986636247
 H          0.7704729339        6.2592731134        1.6824891263
 H          0.4934799783        5.9895399351        0.2019634732
 O         -3.4396623613       -4.4211393676       -2.0984953232
 H         -3.5458442495       -4.1646878583       -3.0198197658
 H         -3.1600004983       -3.6035557040       -1.6216791304
 O          8.3902171282       -0.9818664380        2.7657785409
 H          9.1767079224       -1.3139924594        3.1983870216
 H          8.6403257019       -0.1750517903        2.2753028395
 O         -0.2673557988       -1.7425755683        0.5011609543
 H          0.5196694557       -2.2252075911        0.1878489167
 H         -0.0489198281       -0.8122782725        0.3179793887
 O          2.0860277912        3.6178562266        4.3220293120
 H          1.5473055665        4.2438845859        3.8342140362
 H          2.2051797359        2.8493606509        3.7548659973
 O          1.1274029383        0.5421676821        0.3832435187
 H          1.9510109056        0.0478545292        0.3620804651
 H          1.2172073749        1.2612196951       -0.2488075140
