  129
       -218.88774887
 O          1.5471559920        3.1066003210       -0.3821660791
 H          0.5978129670        3.0730648389       -0.1647620195
 H          1.6985933706        2.3377496920       -0.9583157887
 O          4.0230957818        2.7159778513       -3.1196020374
 H          4.6300860260        2.5427430145       -2.3866373305
 H          3.6069704359        3.5807440653       -2.9341804574
 O          4.6975463163       -1.4733656517        4.2852545547
 H          4.2457954877       -0.6218930648        4.3874758510
 H          3.9885396473       -2.1089531416        4.1480293911
 O         -1.1057146147        2.4464010651       -0.0452559332
 H         -0.7367098496        1.5929697139        0.2603535844
 H         -1.0878441816        2.3933152761       -1.0366305602
 O          1.4541364947       -4.9842056366        0.4483924779
 H          1.7644794925       -4.0639138015        0.6290944577
 H          1.9603685317       -5.5598575867        1.0222363211
 O          1.8163393233        1.3437395120       -2.4577240017
 H          1.5461616814        0.7128322345       -3.1650165217
 H          2.6055088695        1.8093534990       -2.8054565715
 O          4.7663578180        2.4862236118        2.7668875203
 H          5.2225269600        2.9872269926        3.4437609629
 H          5.4801133917        2.0770621950        2.2026408196
 O          6.6150383352       -1.1932507979        2.3811612991
 H          5.9202864314       -1.3029833848        3.0646114863
 H          7.4429361145       -1.4071566866        2.8130743207
 O          0.5257157241        0.5940051845        1.1196693423
 H          0.7143975457        1.2012237176        1.8690279980
 H          1.4042487603        0.3807940104        0.7188400248
 O          2.4750206937       -2.1638444599       -3.0098089893
 H          1.8914592729       -1.8165027858       -2.2949397993
 H          2.3110485120       -3.1224849340       -3.0042260602
 O         -1.2443992069       -4.8968456505        0.4718958139
 H         -0.2672727597       -4.9585365971        0.5278625803
 H         -1.5906465379       -5.7874228562        0.5273422461
 O          1.3914949927       -4.6010140838       -2.4085071155
 H          0.4826375462       -4.2663051069       -2.4433010610
 H          1.5280578775       -4.8730832900       -1.4921655419
 O          2.4164582335        4.7693544430       -2.3544454655
 H          2.0964706711        4.3023351437       -1.5567368082
 H          1.6615591310        4.8411850629       -2.9403799091
 O         -4.7769247114       -1.4067687550        0.8256303965
 H         -5.2174482050       -2.0388542160        0.2088696637
 H         -3.9031348379       -1.8066304592        1.0062970097
 O          6.6378595347        1.3519185574        1.3573772478
 H          6.3411524810        1.3406242650        0.4323075860
 H          6.6610508475        0.4241047948        1.6632442751
 O         -5.7733908238       -2.9176105799       -1.1107774729
 H         -6.3129804278       -2.2410759057       -1.5547687662
 H         -4.9785562506       -3.0286163540       -1.6575647117
 O          0.9681340741       -0.2985372248       -4.3666106850
 H          0.0333058176       -0.4077084656       -4.1417296706
 H          1.4281792489       -1.1151977814       -4.1116305010
 O         -3.5559375851       -2.7308937513       -2.7933954479
 H         -3.6027345207       -3.1249417722       -3.6648464836
 H         -3.8413470611       -1.7841241493       -2.9020853624
 O         -4.4864335886       -0.2782976838       -3.0566425945
 H         -4.2877647439        0.1777952928       -2.2021032778
 H         -5.4486254606       -0.3858448246       -3.0341266856
 O         -1.5475236116       -0.3624173280       -0.6831023585
 H         -1.8601723891       -1.1233952361       -0.1548168496
 H         -0.5772554562       -0.4646025643       -0.7142890989
 O          4.4836608085       -0.3442204852       -2.8989400549
 H          4.2139004917        0.2981092340       -3.5615964618
 H          3.8401582698       -1.0756484549       -2.9593914049
 O         -3.1559477435        4.2536656058        0.4681259924
 H         -3.2028812173        4.9218155032       -0.2152412713
 H         -2.4862211752        3.6098177331        0.1769155635
 O         -2.2337174364        0.5580829814        3.8632241741
 H         -3.1813014096        0.4657066946        3.6405592541
 H         -1.9927273292        1.4464084060        3.5602070134
 O         -5.1825061787        2.4235006639        0.9582634897
 H         -4.7038345906        1.8778694347        0.2985447460
 H         -4.6894997617        3.2550864820        0.9742224441
 O         -0.7247919779        2.3128687422       -2.6373975878
 H          0.2267508679        2.0880729593       -2.6205693094
 H         -1.1421736917        1.5326126497       -3.0425413620
 O         -1.6732204675        3.0393589863        2.6788395735
 H         -2.3802247560        3.6872254213        2.6401856860
 H         -1.4633533649        2.8318991111        1.7559356096
 O         -4.7683394513        0.5014345992        2.9032613814
 H         -4.9491431626        1.2809820121        2.3476131030
 H         -4.8244729926       -0.2641845090        2.3172191386
 O          1.8828586525       -1.7605319517        3.3886234584
 H          0.9104592679       -1.6527419676        3.3318974233
 H          2.2304159698       -0.8637096016        3.5493370235
 O         -7.0461277469        0.4175050273        0.2735452058
 H         -6.6393850612        1.2692678499        0.4898253365
 H         -6.5727341979       -0.2379220068        0.7979350512
 O          0.9227913537        2.2530645128        3.1924230030
 H          0.0449316757        2.6242091246        3.3434362193
 H          1.4795559988        2.9864237878        2.8273634846
 O          0.7526054303       -1.5466491292       -1.1004977037
 H          0.1194624212       -2.2498564681       -1.3542580719
 H          1.2114764895       -1.8341873883       -0.2923217254
 O         -1.0675600535       -3.4020413830       -1.8401632029
 H         -1.9205765753       -3.0832570021       -2.1859328561
 H         -1.2775369633       -3.9306151383       -1.0532902818
 O          3.0204240280        0.7036111754        3.8755395958
 H          2.1925589155        1.2133488757        3.8799247742
 H          3.6639809742        1.3022909105        3.4504749004
 O          2.5464599335        3.9604953814        2.0221411380
 H          2.3075641249        3.7591613986        1.1020631504
 H          3.3962436766        3.5220915208        2.1886560705
 O          5.7876799093        1.3627964477       -1.3059732459
 H          6.6107289331        1.4713827120       -1.7851261517
 H          5.3076539385        0.6412042384       -1.7681077826
 O         -7.0581501132       -0.6832117547       -2.1506959222
 H         -7.9731235286       -0.6805642092       -2.4313360226
 H         -7.0408522336       -0.2061854727       -1.2838282682
 O         -0.6486566344       -1.1850006203        2.6922028826
 H         -0.2385787766       -0.5644124196        2.0427199437
 H         -1.2303668884       -0.6044947321        3.2433409710
 O         -3.9723961622        0.6649148938       -0.6416152771
 H         -4.3121172279       -0.0982668611       -0.1117113913
 H         -3.0037993722        0.5882287575       -0.5941395958
 O         -1.6846125407       -0.1694197309       -3.3814574520
 H         -2.6143696045       -0.1020710696       -3.6204891980
 H         -1.6643278119       -0.3614622155       -2.4202034962
 O         -2.2656500651       -2.3475435393        1.0034963862
 H         -1.6948219720       -1.9750935630        1.7261573335
 H         -2.0167940121       -3.2753904383        0.9162185621
 O          2.2009584421       -2.5714199770        0.9246571488
 H          2.0393973148       -2.2692180815        1.8549902715
 H          3.1632129767       -2.6834685802        0.8655493481
 O          2.9374314869        0.1859099597       -0.0477122825
 H          3.7467812283        0.6691557853        0.1221291035
 H          2.6925356041        0.3326060495       -0.9735125872
 O          4.8071161942       -3.3799317052        1.0918613792
 H          5.4081171061       -2.7249675067        1.4685821528
 H          5.1807197796       -3.6741012990        0.2596060884
