  117
       -193.23145193
 H         -0.4094366024        1.6958474979       -2.4340265415
 C         -0.8402360215        0.7464443990       -2.0995053727
 H         -1.6746834609        0.4908805740       -2.7560705503
 C         -1.3149037393        0.9134846431       -0.6675000326
 H         -1.9177420193        1.8143565233       -0.5940450593
 H         -0.4466149232        1.0082124653       -0.0209401401
 O          0.1078845032       -0.2975334110       -2.2206534408
 H          0.6875489419       -0.2700553632       -1.4277460878
 N         -2.1017696002       -0.2513596012       -0.2326544421
 H         -1.5214811494       -1.1182685550       -0.3261915536
 H         -2.9655342389       -0.3139304009       -0.8258972152
 H         -2.3892167086       -0.1119790777        0.7608172364
 O          4.7273236609       -3.1979544190        1.2710686542
 H          5.1828250141       -4.0116402619        1.0532751564
 H          4.0043089610       -3.0809063686        0.6088988150
 O          1.4681031159       -0.3430721386        0.2030775316
 H          2.2578651553        0.2129506382        0.3696440100
 H          1.8208648922       -1.2509187944        0.1385468213
 O          5.8357116032       -0.7594466121        1.3957564230
 H          6.2732255967       -0.6798924437        2.2445135421
 H          5.4756362422       -1.6724817874        1.3431998299
 O         -6.5916227109       -0.1401661047       -0.5888698301
 H         -6.4465498085       -1.0923444962       -0.3391029341
 H         -7.4649076088       -0.0841882809       -0.9780391551
 O          1.1417304673       -3.3802183082       -2.4348586255
 H          0.9377835267       -4.2105621649       -2.8654569289
 H          1.6854632185       -2.8577452279       -3.0855598673
 O         -4.2850781449       -2.6310947987       -2.4518689408
 H         -4.5864345604       -2.8489758765       -3.3341086693
 H         -4.2135500001       -1.6575604344       -2.4029762794
 O          1.4552813805        0.3506121982       -4.4449628844
 H          0.8811452197        0.0401075618       -3.7091684362
 H          0.8872248436        0.5957198383       -5.1755115246
 O          2.8133939229        1.5043811708       -2.3186092239
 H          2.1556345246        2.0178927782       -1.7975738132
 H          2.4280396703        1.3456197042       -3.1918340126
 O          0.2866022505        2.7444079613        1.6742185697
 H          0.0289540752        1.8611493386        1.9947093754
 H          1.1681688448        2.9074391992        2.0795104016
 O          2.1920303716        0.3306435535        4.1880393021
 H          2.1241697333        0.0749670007        5.1083779437
 H          2.5402538484       -0.4502981425        3.7055866339
 O         -2.6282189780        0.7333789495        2.2355070411
 H         -3.3748082770        0.3365427806        2.7275602908
 H         -1.8200724540        0.5847002987        2.7364619606
 O         -1.3785642801       -2.1372906229        2.8857402268
 H         -0.7483254877       -2.8352437054        2.6641410238
 H         -0.8717453026       -1.3126379073        2.7866425508
 O          2.7579861951        2.6575848734        2.6579497570
 H          2.6430885816        2.1253998207        3.4544665434
 H          3.1371720064        2.0332397830        2.0023029508
 O          1.2157037253        3.0891737897       -0.8658833920
 H          1.9287536191        3.7143726175       -0.6153325845
 H          0.8163816061        2.8585669672       -0.0050159981
 O          0.7501847283       -3.3948949194        1.6598397063
 H          0.3184219208       -3.0289429447        0.8500052279
 H          0.9358699139       -4.3163999694        1.4820334507
 O         -3.7851415805        2.7897955052        0.8163372117
 H         -3.2580699931        3.5883571219        0.9663293130
 H         -3.3457360781        2.0988082019        1.3400916409
 O          2.7628489796       -2.0345541892       -3.9953075707
 H          3.4293712414       -1.6959064242       -3.3751475111
 H          2.3626512791       -1.2408997964       -4.3851689132
 O         -5.8874921144       -2.6235867844       -0.1522462390
 H         -5.4415700321       -2.8300071784       -0.9883029755
 H         -5.1879755080       -2.5717957946        0.5150053413
 O         -6.1103936145        1.4557770331        1.5970856131
 H         -5.4452505410        2.1037721620        1.3173544211
 H         -6.3580855481        0.9609580890        0.7968509944
 O         -1.3627166613        3.9702316837       -1.5850602243
 H         -0.4104855257        3.7990718241       -1.5381081578
 H         -1.5864375903        4.3683718173       -0.7309617228
 O         -3.6513097925       -2.0881406577        1.4557837039
 H         -2.8368938779       -2.2105205027        1.9892338600
 H         -4.2284117724       -1.5676622059        2.0382054709
 O          3.7263014187        0.9543299039        0.8252499864
 H          4.4072279706        0.3228678743        1.1065838409
 H          4.1584071821        1.5486962667        0.1682659720
 O         -4.2217831943        0.0123333994       -1.8802307078
 H         -5.0905362890        0.0234462934       -1.4300302421
 H         -4.0495296338        0.9609353294       -2.0891415512
 O          0.1073360546        0.1415934459        2.4645101715
 H          0.5951815777       -0.1429341452        1.6553669605
 H          0.7896850872        0.2251364549        3.1582546886
 O          4.9634030198        2.4568958788       -0.9903880750
 H          5.7168111952        1.8793857203       -1.1759326652
 H          4.3110108188        2.2953336582       -1.6955849855
 O          6.5613178334        0.1648096969       -1.0778947883
 H          7.4640834170       -0.0428515849       -1.3208473578
 H          6.4269545959       -0.1395223407       -0.1605751061
 O          2.7425978252       -1.8467048174        2.7667366945
 H          3.5275330295       -2.3366373854        2.5031155325
 H          1.9887441515       -2.3588379390        2.4248000251
 O         -4.9260184089       -0.2976782040        3.1143899069
 H         -5.4482809888        0.3629245377        2.5745873261
 H         -5.3856792678       -0.3935715145        3.9483564623
 O         -3.7725755331        2.6125306863       -1.9586680547
 H         -2.9782637013        3.1404403257       -2.1311729206
 H         -3.9898993608        2.7843865293       -1.0267047228
 O          3.2692655850        4.3632838583        0.2925266953
 H          3.2356599497        4.0965934308        1.2179758668
 H          4.0662119290        3.9704750638       -0.0835651516
 O          4.1187884306       -0.8032289344       -1.9414333394
 H          3.5977356718        0.0256497743       -2.0100612144
 H          5.0296826519       -0.5291664728       -1.7549975243
 O         -2.7728108679       -3.9061161193       -0.4886694208
 H         -3.2817436222       -3.6192866103       -1.2614286497
 H         -3.1969457050       -3.4940087440        0.2786546637
 O         -0.5792816496       -2.5114745670       -0.4647383473
 H         -0.0613652134       -2.6479943707       -1.2756109480
 H         -1.3442768359       -3.1436242136       -0.5016025629
 O         -1.6769935881        4.5517542463        1.1488719296
 H         -1.4753932645        5.3960193769        1.5530653546
 H         -0.9628364820        3.9339856188        1.4045675595
 O          2.8283174483       -2.5921440109       -0.4647196472
 H          3.3501907024       -1.9620847336       -1.0112357473
 H          2.2470324534       -3.0540034719       -1.0949434318
