  132
       -218.69358017
 H         -2.6803180566        1.5632353490       -0.0998801738
 C         -2.0489830276        0.6899185488        0.0747479144
 H         -2.1871231953        0.3639726399        1.1065963731
 C         -0.5859257351        1.0536286757       -0.1566262976
 H         -0.2275915074        1.6328939295        0.6904782528
 H         -0.4765639498        1.6368965612       -1.0688005805
 O         -2.3890754804       -0.3657200828       -0.8070542199
 H         -3.3479846459       -0.5679382469       -0.6890253507
 N          0.1903783283       -0.1877814725       -0.2944129185
 H         -0.0154387202       -0.6092887291       -1.2297155929
 H         -0.1100484278       -0.8695817575        0.4395920687
 H          1.2141953648       -0.0379806448       -0.2233805184
 O          4.2962803710       -2.6121649815        0.2373599311
 H          3.9342834039       -2.8456376924        1.1099398220
 H          5.1142803491       -2.1104371995        0.3994780077
 O          0.5426488368        1.3993241000        4.4370937237
 H          0.7805740658        1.7678621716        3.5694564752
 H          1.3936201068        1.0617280429        4.7799332595
 O          1.9811419800       -2.5582789899        5.0853076270
 H          1.9041214764       -2.9442343586        5.9579172541
 H          1.1090515236       -2.1703373827        4.8672044105
 O          1.3846932678       -0.7636363994        2.1529788236
 H          2.0820127993       -1.4323143330        2.2615379494
 H          0.7499540634       -0.9360440082        2.8710139487
 O         -2.6490306048       -1.1488643312        3.0777328161
 H         -3.5421975164       -1.4136793195        2.7975428362
 H         -2.6316688634       -0.1750722311        3.1425139992
 O         -4.9435751806       -2.1464998293        1.9653307789
 H         -4.5823830946       -2.9846020791        1.5822163271
 H         -5.7019146968       -2.3927194149        2.4963019913
 O          2.9184272199       -2.9921995793        2.5247248350
 H          2.1808356062       -3.5112376871        2.1524992708
 H          2.7995814771       -2.9949517156        3.4864273733
 O         -0.0458829445        1.5300561627       -4.2602889505
 H         -0.9108759659        1.1695214441       -3.9699818584
 H          0.3420599975        0.8519973474       -4.8274760896
 O         -2.0636447504       -3.4881016396       -0.8424423889
 H         -2.4446554324       -3.0748978887       -1.6589238363
 H         -1.2424426136       -3.8951418670       -1.1370046710
 O         -5.6525946191        2.0491924875       -2.8082781927
 H         -4.8940253176        2.6464629849       -2.8465597878
 H         -5.8868736119        1.9874409183       -1.8687758520
 O         -4.0103730923       -4.3404505186        0.8005678687
 H         -3.2820704493       -4.0810877946        0.1986452446
 H         -4.6495100620       -4.8067232145        0.2597234242
 O         -0.2160134907       -1.2026048517        4.3218355378
 H         -0.0988593286       -0.2505952402        4.5201187280
 H         -1.1425980049       -1.3241307826        4.0706440771
 O          4.4496766750        2.8041029445        2.2823969181
 H          4.6761230138        3.0289412434        1.3550560879
 H          4.8405055080        3.4689578713        2.8490341499
 O          2.9155850584        0.0907928907        4.7396922793
 H          3.4134853339        0.0343276219        3.9114925229
 H          2.7282111541       -0.8247025257        4.9900283970
 O         -3.0442123639        3.1609020171       -2.4663129767
 H         -2.3132626492        3.7183616960       -2.7634387078
 H         -2.7997180629        2.2527826950       -2.7471110918
 O          5.0889932945        0.6714154679       -1.3353318578
 H          5.1835456278        1.6160650841       -1.1344478285
 H          4.2211690783        0.4215130934       -0.9337181628
 O          6.3047980162       -0.7787419676        0.5387369882
 H          7.2518112890       -0.8688298756        0.4355658537
 H          5.9812448174       -0.2153260682       -0.2087669823
 O         -3.9963627456        3.6431826438        0.0461390987
 H         -3.6518387606        3.6015831294       -0.8653249256
 H         -3.2220947719        3.6739122353        0.6330383190
 O         -1.6560934016        3.7131990948        1.5107561965
 H         -1.6545033200        4.5012061672        2.0569491389
 H         -1.0706559577        3.9226581499        0.7437768984
 O         -0.1996696057       -1.4493040931       -2.6807902312
 H          0.3382390328       -1.2319378896       -3.4581829068
 H          0.1190903184       -2.3033047288       -2.3331000726
 O          0.8198028562       -3.6421562003       -1.4368096366
 H          0.8976196914       -3.7958799830       -0.4789660469
 H          1.7276402901       -3.5764213191       -1.7708766360
 O          1.6881708430        1.0491416626       -2.2474879815
 H          2.3746888386        0.4767306976       -2.6220063813
 H          1.0891084466        1.2882299241       -2.9797764616
 O          0.7386811885       -4.0626828733        1.3133379179
 H          0.1008683670       -3.3050056451        1.3885320204
 H          0.2636404327       -4.8475155372        1.5878523149
 O          1.3752257512       -0.8079042495       -4.8957650050
 H          2.2500881729       -0.7092140036       -4.4816251086
 H          1.4832683883       -1.3880468778       -5.6499343005
 O          2.2295301521        2.9061117334       -0.4601233394
 H          2.0216829081        2.5042653104        0.4115270687
 H          2.0509235198        2.2113644913       -1.1361576467
 O         -0.0963463690        4.3401766708       -0.5460388493
 H         -0.3474732245        4.3315195361       -1.4795014828
 H          0.7956624951        3.9510190470       -0.5088497169
 O         -2.3566313476        0.6705676029       -3.2409239690
 H         -3.2212798883        0.3071184904       -3.5140118198
 H         -2.1971455666        0.2465961295       -2.3667833630
 O         -4.7974600140       -0.4604055756       -3.1822114632
 H         -5.2422645598        0.4121930791       -3.2565230101
 H         -5.0029875839       -0.7461055128       -2.2804943185
 O         -4.9866615675       -0.7189291503       -0.3878905730
 H         -5.0700219487       -1.2082467601        0.4473523343
 H         -5.3594742146        0.1675423766       -0.2262379118
 O         -1.0011094404       -2.1199241524        1.1998328727
 H         -1.5343724733       -2.4683587778        0.4542572220
 H         -1.6209942404       -1.8228808815        1.8985247276
 O         -5.8765614323        1.8205536202       -0.0093407425
 H         -6.6587830096        2.1688820139        0.4183207163
 H         -5.1702020425        2.5092992308        0.0957525892
 O         -2.0590686849        1.5012063534        3.2380462224
 H         -1.9953111849        2.2528864914        2.6312449571
 H         -1.3202710617        1.5904174217        3.8523330344
 O          4.8009989531        3.2438522701       -0.3648881162
 H          3.8065286099        3.1713134127       -0.4628294583
 H          5.0520521522        4.0880940893       -0.7398104725
 O          2.9680676282       -0.2453137864       -0.0378494024
 H          3.1897166469       -1.1899117022       -0.1098310867
 H          3.2816327924       -0.0098479490        0.8619951242
 O         -2.7636340177       -2.4407973176       -3.1374266757
 H         -1.9686008735       -1.8844595063       -3.1732344772
 H         -3.5248160738       -1.8676210810       -3.2952021385
 O          3.6043505620       -0.6687762890       -3.3059299766
 H          4.3452926727       -0.2170940535       -2.8748236635
 H          3.5628602577       -1.5631450591       -2.9213881037
 O         -0.5508754051        4.0727784378       -3.3244421616
 H         -0.2913744952        3.2255334190       -3.7267126458
 H         -0.3903819051        4.7536509367       -3.9783187037
 O          1.7592261543        1.8616561027        1.9803863492
 H          2.6165007921        2.1334447151        2.3330514921
 H          1.7158487813        0.8761336494        2.0345635724
 O          4.3104116311        0.1194104035        2.2628907878
 H          5.1227394013       -0.2837792240        1.9259822851
 H          4.4967252663        1.0701759370        2.3575972360
 O          3.4613191347       -3.1979115005       -2.2033422368
 H          3.8171551066       -3.0671161129       -1.2973056640
 H          3.9664462045       -3.9087592298       -2.5998003761
