  99
       -167.94099491
 O          2.6768090191        3.7143042884        0.8350999784
 H          3.5017044910        3.2966954039        1.1296081435
 H          1.9883151426        3.4577487337        1.4709885561
 O          4.5354801640       -0.0509347695        2.6231780022
 H          4.7732725643        0.8492714437        2.3494035733
 H          4.9809316792       -0.6395188103        1.9902311971
 O          0.7783159698       -5.2953423845        0.4449809522
 H         -0.0021280054       -4.7168867728        0.4753987741
 H          0.7667403039       -5.7336923077       -0.4074225171
 O          2.5899613426       -3.3699380001        0.8506677728
 H          2.3759578574       -2.8157675986        0.0873676361
 H          1.9975716245       -4.1492275517        0.7815604929
 O          2.6334164659       -1.9447679065       -1.6589768511
 H          1.7686036104       -2.3033507999       -1.9460458276
 H          2.7323443719       -1.0903146823       -2.0961840268
 O         -5.9914549244        0.5460991094       -1.4366217885
 H         -5.2453662687        0.5545518468       -2.0890840663
 H         -6.7840478785        0.7491824152       -1.9350281646
 O          5.0341250078        2.3139969035        1.2480729969
 H          5.1561643103        1.8690428346        0.3831526403
 H          5.8082468722        2.8577999318        1.4010092004
 O          2.1622616691       -2.4016557535        3.3585850288
 H          2.8196930154       -2.7303950184        3.9704682269
 H          2.3664381573       -2.8055344647        2.4912842562
 O          2.3963602867        3.4831227199       -1.7792425986
 H          2.8192866846        4.2400729125       -2.1854291294
 H          2.4888066257        3.6022009410       -0.8010794116
 O         -0.2009080801        2.7552783105       -1.9141191848
 H          0.6439187316        3.2285755957       -2.0015053434
 H         -0.1134712913        2.2431789195       -1.0841061010
 O          2.9465423124        0.8120631023       -2.3987300182
 H          2.6927018609        1.7423477548       -2.2790890971
 H          3.8306468371        0.7581393799       -2.0063432901
 O          0.2058744368        0.5793152733       -3.4599315298
 H          1.1640499714        0.4893440597       -3.4365320061
 H          0.0024667465        1.4354961825       -3.0304748648
 O         -2.0287102736        2.9205846526        2.8555879628
 H         -2.5435096164        3.1958321857        2.0719168434
 H         -2.5101836808        3.2476381606        3.6174031304
 O         -1.0188348815       -3.2369940565        0.3832928745
 H         -0.7926242954       -2.6761040033        1.1517494573
 H         -1.8949198909       -2.9659418673        0.0734952263
 O         -5.5977957865       -1.7446851953       -0.1038101654
 H         -6.3992199438       -2.2660841232       -0.0512323522
 H         -5.8250758834       -0.9047604986       -0.5629254640
 O         -1.8146209578       -1.1334890779       -3.4332848358
 H         -1.8670144924       -1.4592630984       -4.3340391763
 H         -1.0723466273       -0.4830669450       -3.4340074514
 O         -3.5507475612        3.7662149627        0.7324611456
 H         -3.7420204996        4.6962346804        0.6065524815
 H         -3.3018255771        3.4004366818       -0.1532726976
 O         -2.8762770363        2.5224927403       -1.5003854473
 H         -1.9792590250        2.7699559617       -1.7782185585
 H         -2.7842455612        1.6875346840       -0.9885523166
 O         -1.9668211946        0.1619262216        3.2747266299
 H         -2.8588093027       -0.0822331115        2.9868671923
 H         -1.8964548409        1.1182260165        3.1212638316
 O         -0.2183819367       -1.6039104668        2.3995379145
 H          0.1490501810       -2.1321241855        3.1173997731
 H         -0.8779852230       -0.9792117485        2.7855180495
 O          0.6903380549        2.5366841928        2.3542442855
 H         -0.0660893449        2.8645070515        2.8554412633
 H          0.2915222448        2.1516372208        1.5471932180
 O         -3.0821097309       -2.1134621010       -1.0409102891
 H         -2.9964448762       -2.0444678770       -1.9974170387
 H         -4.0284292324       -2.1337276361       -0.8066953063
 O         -4.3185089574       -0.2021526163        1.8807741594
 H         -4.8895807020        0.5930097958        1.7406788522
 H         -4.7853732751       -0.9324240711        1.4506765063
 O          4.8267447869       -3.2875918766       -0.6999148665
 H          4.2572389873       -3.6747305533       -0.0136915737
 H          4.1985973208       -2.8897783606       -1.3265555147
 O          5.8815681935       -1.2906885861        0.5441534663
 H          6.7829508051       -1.5405120891        0.7530476654
 H          5.4832878780       -2.0839863516        0.0675713113
 O          5.4037878411        0.8194510870       -0.9956715641
 H          5.5653340859       -0.0008672900       -0.4683150913
 H          6.1467758238        0.9106032253       -1.5946914726
 O          0.1265822861       -2.7858735082       -2.0555156995
 H         -0.2439710165       -3.0049079423       -1.1803947853
 H         -0.5558146128       -2.2810200342       -2.5155398498
 O         -2.5811177104        0.2967013164       -0.0349735833
 H         -2.6509396616       -0.5693464699       -0.4892716141
 H         -3.1715140248        0.2005209213        0.7529342719
 O         -3.9871811971        0.6317985585       -3.1489400685
 H         -3.6046221795        1.4649991113       -2.8256911720
 H         -3.2482698402        0.0069892215       -3.2312918502
 O         -5.6257290716        1.9067619257        1.0162985176
 H         -4.9787880142        2.6264995736        0.9489790375
 H         -5.7871846340        1.5861375823        0.1156269439
 O         -0.0092424306        1.2230838855        0.1572503422
 H          0.7455574599        0.5990773460        0.3201044802
 H         -0.8311287240        0.7130141194        0.2433310697
 O          1.8961637486       -0.4463464333        0.9009836813
 H          2.6721497417       -0.2135804337        1.4244677839
 H          1.3250040042       -0.9448545597        1.5082580809
 O         -0.5678869769        4.7744278478        0.1862653351
 H          0.0737547343        4.4207696815        0.8085341433
 H         -0.5522895033        4.1815731728       -0.5744692246
