  189
       -320.70125964
 O          0.8853225957       -1.0710721889       -4.6541977292
 H          1.3187173661       -1.7827805507       -4.1421298317
 H         -0.0432613259       -1.3258295396       -4.7446230217
 O          5.2341666375        2.1916314415        4.5836044752
 H          5.2834405690        2.2062080342        3.6052224048
 H          5.2725594676        3.1031506551        4.8732449799
 O          1.6610093771       -2.7897424007        1.4290540354
 H          0.8426895245       -3.2581430694        1.1804425997
 H          1.9826405731       -3.1838426860        2.2754110427
 O         -5.3102922363       -2.1894302290       -0.7792905238
 H         -5.2087941534       -3.1106616599       -0.4943857217
 H         -5.1280436409       -1.6339358741        0.0012843707
 O         -1.8438995921       -1.4019067676       -4.0008047818
 H         -2.6860009152       -1.8629445123       -3.8319583069
 H         -2.1063704521       -0.4786550133       -4.2020851134
 O         -0.7594758880       -3.6050191724        0.6180887587
 H         -1.1194685078       -4.3178025742        0.0904599290
 H         -1.2627181823       -2.8055042461        0.3921446148
 O          5.4802792634       -0.7464966440       -3.5233371709
 H          4.7026017020       -0.3209180757       -3.9337313470
 H          5.3337072788       -1.7056564472       -3.5984290631
 O         -1.8325108992       -1.7266806765        3.4568074528
 H         -2.4153798716       -0.9461861359        3.5244046656
 H         -2.3556672991       -2.4019062458        2.9994923343
 O         -1.8926649613        1.2876157293        1.0540498898
 H         -0.9378246935        1.3902008721        1.1901219517
 H         -2.0371493101        0.3955926225        0.6809277909
 O          5.4200622841       -3.9063505944       -0.7250654697
 H          5.2219411611       -4.4643202874        0.0405203303
 H          6.0248748357       -3.2189812565       -0.3894110093
 O         -1.4382605291        1.2225859708       -1.9776197402
 H         -1.6008424583        2.1830524923       -1.8648449979
 H         -2.3054532812        0.7677534382       -2.0661028598
 O          4.4963015270       -4.3908830998        1.8483418886
 H          3.8677811663       -4.7325949520        2.4920006251
 H          4.2246999072       -3.4561049119        1.7115463868
 O          2.0992123728       -2.9684553223       -3.1490437639
 H          2.8898013675       -3.2976286819       -3.5907894443
 H          2.4138755785       -2.7388386844       -2.2440638305
 O         -2.5364559612       -4.3890595715       -1.9064320316
 H         -1.7538859980       -3.8047776177       -1.8989886184
 H         -3.1100405022       -4.0218067684       -2.5929632107
 O          0.2945119812        1.5253332696       -3.9988525737
 H         -0.3390125772        1.3981062584       -3.2650033349
 H          0.5147626649        0.6318534708       -4.3067823119
 O          6.8298531997        1.5236739625       -2.5891601450
 H          7.4829814323        1.8662906052       -3.1994501306
 H          6.5000993249        0.6926357250       -2.9707332731
 O         -0.7109308560        5.2103867709        2.4001651071
 H          0.1415867312        4.9802325729        1.9657131742
 H         -0.6483804174        6.1291366362        2.6603160584
 O          0.8955925756        0.1541148272        5.9277496763
 H          1.8013440031        0.2680403712        5.5637119421
 H          0.9458330737        0.3171786114        6.8692421449
 O         -4.4030146127       -4.6878493878       -0.0584202846
 H         -3.6642752163       -4.6246037501       -0.7139931026
 H         -4.7302461604       -5.5860202455       -0.0992261983
 O         -1.5851933872        3.8949334424       -1.8884612655
 H         -1.9076889405        4.0553641097       -0.9715085927
 H         -0.7047078139        4.3040703295       -1.9362419006
 O         -2.3009199370       -1.2939132178        0.1786726594
 H         -2.8526385991       -1.1057718658       -0.6021969874
 H         -2.8598688755       -1.7777656421        0.8164875238
 O         -4.6353239976        1.8999561859       -0.4363558924
 H         -4.5202860163        2.2144833567        0.4769532899
 H         -5.5931585827        1.9705651075       -0.6491312462
 O          0.4360553061       -2.4166856587        4.9253511486
 H         -0.4147565752       -2.3283111505        4.4737223680
 H          0.5976585530       -1.5531385931        5.3357745614
 O          6.8137830702       -3.3762797084        2.9268578943
 H          6.0082870903       -3.8492642786        2.6303739212
 H          7.4234394824       -4.0428937089        3.2421566909
 O         -3.6408121408       -2.9556687349        1.8829365926
 H         -4.4160688343       -2.3781137065        1.9822134562
 H         -3.9061796985       -3.7151154982        1.3405897853
 O          6.7984787970       -1.9676475531        0.6075459788
 H          7.0874833253       -2.3451178163        1.4570338506
 H          7.0953547455       -1.0448389108        0.5552489130
 O          3.1081380977       -2.4982950984       -0.7501153349
 H          2.6020319987       -2.6272960017        0.0860906635
 H          3.8728333256       -3.1038661976       -0.7144492693
 O          3.2049055475        0.4744536595       -4.3012015943
 H          2.4666085443       -0.0577044245       -4.6263196635
 H          3.0745567331        1.3660658484       -4.6321632758
 O          0.1087636764       -0.7148316094        1.9796880997
 H          0.8254507794       -1.3810840442        1.9523911497
 H         -0.6302650886       -1.1492772054        2.4646240941
 O         -5.1971434284       -0.8069618866        1.5598259192
 H         -4.6479737396       -0.2284199905        2.1177831391
 H         -6.1217856969       -0.5289677423        1.6791688978
 O         -7.5460061247       -0.6208953926       -1.0475855264
 H         -7.8344852553       -0.5180536687       -0.1265719393
 H         -6.8095012403       -1.2580199429       -1.0058015916
 O         -0.1283043278        1.4385213745        3.6765658983
 H          0.0963088203        1.0891570739        4.5492529372
 H          0.0303269797        0.7055619703        3.0587503187
 O          4.2650777429        2.3129453612       -1.7716789819
 H          5.1520541271        2.3928473235       -2.1494645791
 H          4.2206031694        1.3806367467       -1.4808522995
 O          0.9538878981        4.9064344597       -1.7456805196
 H          1.1107216094        5.8006140369       -2.0496358668
 H          1.4695595744        4.3135929953       -2.3652660068
 O          4.1381586459        4.0723402886        0.4069142800
 H          4.1195277450        3.6171912597       -0.4509142611
 H          3.2238248640        4.3108328706        0.6378559219
 O          4.5579364589       -1.8606891978        4.3392044493
 H          4.0987770768       -1.0306588101        4.6191298095
 H          5.4529587044       -1.8413204526        4.6794234587
 O         -2.5518098059        1.1312423558       -4.6409770657
 H         -1.7195663269        1.5885545128       -4.8028195863
 H         -3.0704627023        1.6979408346       -4.0444115204
 O          2.2270105407        3.2970390858       -3.3518434144
 H          1.5517203278        2.6329491988       -3.6030758487
 H          2.9322800993        2.8497352708       -2.8528927050
 O          4.9174279573       -3.4612586823       -3.4191409483
 H          5.1101795574       -3.6830126022       -2.4905544894
 H          5.4460587180       -4.0542113950       -3.9544730968
 O         -7.7817485813        0.0106188172        1.6572522196
 H         -7.6312701152        0.9931708007        1.6438804502
 H         -8.4848020825       -0.1455001656        2.2874175096
 O          6.6644631849        0.7243985334        0.1625076877
 H          5.8435607439        0.3370149824       -0.2216008682
 H          7.0648325843        1.1964716833       -0.5764901009
 O         -2.3679194680        3.9882211342        0.6121476363
 H         -1.7993194936        4.4640737744        1.2417827397
 H         -2.2391193639        3.0392934646        0.7962274418
 O          1.4083100075        4.4509242685        0.9214373914
 H          1.1949773187        4.6776398911       -0.0039468749
 H          1.1869504527        3.5028553415        1.0192901075
 O         -6.2859835521        2.3831070081       -3.8857189767
 H         -5.3892994776        2.6686258225       -3.6133532852
 H         -6.4882700779        2.8317492049       -4.7065541710
 O          3.2580327260        0.4039506173        4.7170022101
 H          3.9442725739        1.0924139766        4.8369504747
 H          2.9755677391        0.4912880233        3.7761470108
 O          4.5439448076       -0.2758922653       -1.0722013000
 H          4.9473204466       -0.4896685627       -1.9408886103
 H          4.0171248278       -1.0671711946       -0.8376714466
 O         -4.2034982873       -2.6251047972       -3.2861897938
 H         -4.8268447149       -2.2052371905       -3.8861685470
 H         -4.5223977138       -2.3824731451       -2.3959950670
 O         -7.1443322588        2.0501492233       -1.2494032302
 H         -7.3909500337        1.1015108006       -1.2337795051
 H         -7.0677679033        2.2913851074       -2.1838030515
 O         -7.2685867140        2.5840590760        1.5179133740
 H         -7.3411420505        2.7173336218        0.5629087953
 H         -6.3722497564        2.8472863209        1.7798939337
 O         -3.8547366020        2.8490630877       -2.8643454154
 H         -4.0823057208        2.5531558494       -1.9584592876
 H         -3.1400502139        3.4925173595       -2.7446005282
 O         -2.2892012929        3.0485640442        3.5736829112
 H         -1.8865258461        3.9074104234        3.4071440717
 H         -1.5219566012        2.4391966923        3.6220340318
 O          5.0889250741        2.1173961497        1.8919591449
 H          4.8105523088        2.9273573271        1.4003389849
 H          5.7750177045        1.6844392434        1.3495131062
 O         -4.5552989621        3.1732233577        1.9840493492
 H         -3.8862153981        3.0113057594        2.6747663791
 H         -4.1723755461        3.8970994418        1.4687161525
 O         -5.8544363913       -0.3138119572       -3.4584702454
 H         -6.0069360067        0.5925568482       -3.7731555341
 H         -6.5965950653       -0.5162908294       -2.8781352961
 O         -0.4504548186       -2.6460235265       -2.1454767647
 H          0.3326615440       -3.0219860047       -2.5690477416
 H         -0.9384715553       -2.1329116744       -2.8344755987
 O          2.5091290356       -3.6702431989        3.7666042872
 H          1.7258380028       -3.3574900925        4.2654504477
 H          3.2398714527       -3.1200730196        4.0872471415
 O          4.3107254401       -1.7027370455        1.6823644059
 H          5.1778339585       -1.6481890577        1.2380877515
 H          4.4884322565       -1.7397602072        2.6458033202
 O          2.9396086651        0.5745127420        2.0685356929
 H          3.7058554994        1.1873480419        1.9777906770
 H          3.2905286398       -0.3037703210        1.8199436214
 O         -3.3755116589        0.4882628677        3.1408192767
 H         -2.8127822188        0.8872356551        2.4365031161
 H         -3.4174701556        1.1480228627        3.8360375963
 O         -3.6949066493       -0.1273114773       -1.8112355795
 H         -4.0794274106        0.5186141852       -1.1844776118
 H         -4.3750569206       -0.2507405080       -2.5012322595
 O          0.6914225848       -0.4439190673       -0.7450383438
 H          0.3912067470       -0.8979635148        0.0508760112
 H         -0.0929719237       -0.2994181302       -1.2849546053
 O          1.0369793019        2.0110922264        0.0646857935
 H          0.9723016581        1.0302317055       -0.0459842240
 H          1.4754022995        2.2781399061       -0.7446587591
 O          2.0591731924        3.1850790117        3.4148932205
 H          2.5250339423        2.7705922644        2.6846170055
 H          1.2329886184        2.6839348511        3.4861729250
