  102
       -167.76565618
 H         -2.2167902099        0.5017954816        0.0816523605
 C         -1.2553428059        1.0146090461        0.0540630657
 H         -1.4052694257        2.0781591809        0.2382018264
 C         -0.6101916503        0.8421583029       -1.3126722023
 H          0.3200408568        1.4070576222       -1.3431564394
 H         -1.2858602992        1.2254150322       -2.0731491765
 O         -0.4096977454        0.5197727159        1.0797112092
 H         -0.5363770770       -0.4678613188        1.0926360494
 N         -0.3071786593       -0.5677148639       -1.5958138385
 H         -1.1609809392       -1.1751419455       -1.5963584156
 H          0.3799442236       -0.9369542887       -0.9009472413
 H          0.1073371515       -0.6142457660       -2.5559860745
 O          1.5771352480        2.1957754100       -3.3628344119
 H          0.8446448736        2.7907237404       -3.0335562834
 H          2.0455411255        2.7118385128       -4.0203435555
 O          1.5532650724       -3.8939250954        0.0972060660
 H          0.8964970093       -4.1746004900       -0.5633125225
 H          1.6428923836       -2.9300890658       -0.0417967261
 O          1.7591805325       -1.2007459550       -0.0159278187
 H          1.7758976184       -1.0523805396        0.9557580050
 H          2.3560043299       -0.5674985517       -0.4462747225
 O          1.7737365321       -1.2029319530        2.6380585602
 H          1.2107337240       -1.9824141381        2.7815047379
 H          2.6953800262       -1.5218436142        2.7005778312
 O         -0.2017757723       -4.2074820845       -1.9931808101
 H         -0.2856834740       -5.0277576014       -2.4810496221
 H          0.4245392592       -3.6455786224       -2.5121399834
 O          3.9534332368       -1.7833818145       -2.3033105038
 H          4.6947735814       -1.7548551103       -2.9091918683
 H          3.6889088539       -0.8588332873       -2.1175796289
 O         -4.7443412399        1.3028173662        0.9781582708
 H         -5.6531558365        1.4842838122        1.2225990532
 H         -4.2915598041        2.1674527807        0.9025967539
 O          4.5008654713        0.8226693866        2.6731637530
 H          4.5329344903       -0.1459311662        2.6016831421
 H          3.7755091111        1.0402822835        3.2790349096
 O          1.8601678105        1.3135798755        3.7241894682
 H          1.8596337461        1.8413368247        2.9008995252
 H          1.7563852120        0.3870604739        3.4440987325
 O         -0.3193750440        3.7582166976       -2.4774631683
 H         -1.2537519223        3.5063317860       -2.5321394809
 H         -0.1900404230        4.0545822674       -1.5597057975
 O         -0.8265201087        1.6334407597        3.4918689606
 H         -0.7236251449        1.2353417586        2.6002380119
 H          0.0829079214        1.6272445722        3.8563205877
 O          1.6619094805        2.3359376693        1.2270606240
 H          2.5368153587        2.2302757988        0.8111706524
 H          1.0998355044        1.5801733668        0.9891632095
 O          4.3500377717       -1.9322122524        2.4009424873
 H          4.9590125778       -2.4306791498        2.9469316982
 H          4.3675681433       -2.3644752829        1.5062224654
 O         -1.1778371843       -1.9634774342        0.8698776819
 H         -0.7562744354       -2.5709896049        1.4960598350
 H         -2.0712071854       -1.7845763826        1.2112753545
 O         -0.0524608102        4.2042536286        0.2166557021
 H         -0.6221434980        4.3826493857        0.9739932402
 H          0.6740013090        3.6645014357        0.5719767251
 O          0.4110453041       -3.5683687236        2.4516521128
 H          0.8810058933       -3.8268023969        1.6169195245
 H          0.3020688891       -4.3617262913        2.9753305028
 O         -2.9314452743        2.8425000116       -2.0220142558
 H         -3.1170324861        3.2270070894       -1.1558793152
 H         -3.4249706924        2.0125148250       -2.0504444198
 O         -4.1466789538        0.3234705446       -1.5794986609
 H         -4.2510426929       -0.6342685077       -1.5363973371
 H         -4.4711446540        0.6477166635       -0.7253226708
 O         -2.2340603608       -2.3752891523       -2.0669415749
 H         -1.6391829433       -3.1425020353       -1.9844212411
 H         -2.9767454680       -2.5104835594       -1.4573914146
 O         -2.3316039614       -0.5367629895        4.1781978071
 H         -1.8046189723        0.2760224859        4.0420670801
 H         -2.5984042242       -0.5480975640        5.0970257662
 O         -3.5864103291       -1.0824940519        1.8552428515
 H         -3.9598188932       -0.2164773050        1.6247010419
 H         -3.2255171505       -0.9804835456        2.7574856250
 O         -1.6377180091        4.0119357889        2.5728105808
 H         -1.6568661294        4.6470657034        3.2894325326
 H         -1.3437133508        3.1538894208        2.9645618758
 O         -4.4223711789       -2.3364080386       -0.4260388414
 H         -4.1875103980       -1.9927052225        0.4538777246
 H         -5.1401970585       -2.9581264733       -0.3039547778
 O          1.5199446553       -2.6838764884       -3.2826350452
 H          2.3953536289       -2.4744458692       -2.9176105658
 H          1.2543152142       -1.9259625688       -3.8203516131
 O          0.5387656659       -0.2238530953       -4.1371981775
 H          0.8970765063        0.6757001471       -4.0202863935
 H         -0.3863260961       -0.1316329723       -4.4167377257
 O          4.2748132625       -3.1908646429        0.0918285212
 H          4.2372764101       -2.6990749961       -0.7447295756
 H          3.4793463971       -3.7416081415        0.1043140077
 O         -2.1910864072       -0.2507508847       -3.9237097895
 H         -2.9744865601        0.2785293170       -3.7599078929
 H         -2.3402626997       -1.0922018434       -3.4690631339
 O          3.0153739909        0.6406409127       -1.5972550663
 H          3.5578060018        1.2031503409       -1.0172585303
 H          2.5582753036        1.2230246888       -2.2319495718
 O         -3.5330016849        3.7048351011        0.6719068009
 H         -3.9745630327        4.5510301588        0.5800719313
 H         -2.8407597794        3.8225580388        1.3558902116
 O          4.2140438522        2.0279614592        0.3754425949
 H          4.7932967703        2.7905418841        0.3628318834
 H          4.4122445534        1.5458511746        1.2252018032
