  106
       -178.38122009
 H         -0.5473094190        0.6366346011        1.2971857322
 O          0.2706962565       -0.0844099953        1.3404905105
 H          0.8824287736        0.3164490927        0.6513011604
 H         -0.0041576608       -1.0309911812        1.0310988939
 O          0.9558392196        3.9384269963       -0.7982166561
 H          0.1211342014        4.2449649581       -1.1969451746
 H          1.6156956847        3.9639153224       -1.5056645175
 O          1.1399756732       -3.7736878067       -3.1163696779
 H          1.4970856066       -4.4212118586       -3.7247888936
 H          1.5563878037       -3.9626529693       -2.2363064005
 O         -2.5412128729       -2.9042860118        2.2227602059
 H         -1.9883467463       -3.2053497136        2.9666755319
 H         -2.9261255585       -2.0497191804        2.4550151489
 O          1.6342670333        1.3888275289       -0.2462386464
 H          2.0671718094        1.0912789468       -1.0728612334
 H          1.2479674462        2.2678085176       -0.4281946024
 O          0.4915889701       -1.2063493623        4.2476985204
 H         -0.2126102470       -0.5891134520        3.9621719961
 H          0.9819650880       -0.7107240580        4.9303934020
 O          0.0783858652       -0.8442261454       -1.5377601097
 H         -0.2676400894       -1.6646923344       -1.9283081188
 H          0.9260763915       -1.0798672352       -1.1212019271
 O         -2.4781810480        4.3929755577        0.4492261939
 H         -2.2248117014        4.4851314255       -0.4778867854
 H         -3.0421539938        3.6055367088        0.5068728601
 O         -0.3585316015       -2.4386713197        0.6904293616
 H         -1.1719683844       -2.6364048064        1.1908290960
 H          0.3288673031       -3.0447029935        1.0408740724
 O         -1.3763914385        1.6976783939        1.0686000145
 H         -0.9442579345        2.5127812924        1.4114831210
 H         -1.3719060473        1.7876420692        0.0860933021
 O          2.2796297744       -4.1062628328       -0.7789199991
 H          1.9528576224       -4.4980474083        0.0369984335
 H          2.4035572430       -3.1550348060       -0.5800134816
 O         -0.2407768877        0.3116822802       -3.9578065589
 H         -1.1237417097       -0.0385880706       -4.1549149991
 H         -0.1157156291        0.1353750606       -3.0013834175
 O          2.5161570873       -1.4377493366        2.4650613882
 H          1.7519298507       -1.3438569681        3.0689636888
 H          2.8929389609       -0.5364962705        2.4057270197
 O          2.0761395950       -1.2183569929       -3.8796558843
 H          1.2793905090       -0.7469297113       -4.1730673600
 H          1.7836198030       -2.0961381496       -3.5848161519
 O          1.3944115134       -3.9747390008        1.9753273953
 H          0.7957575825       -4.1055421049        2.7270418370
 H          2.0485784385       -3.3201088416        2.2572878981
 O         -1.3008728833        4.8004438939       -2.1546558680
 H         -1.3965286835        5.6959668073       -2.4801051521
 H         -1.0555986370        4.2414630053       -2.9147839617
 O         -1.3734785916        0.6285165394        3.6633805505
 H         -2.0698454986        0.4094139803        2.9907234159
 H         -1.8239458311        1.0336159023        4.4044149344
 O         -0.5541930121       -3.6188831949        3.9762011558
 H         -0.1502502119       -2.7410620075        4.1714490444
 H         -0.6299691041       -4.0837885792        4.8098159849
 O         -3.6960626236        0.7758769520       -2.0167857488
 H         -3.6356281599        0.3797180314       -2.8941707381
 H         -3.3324862798        0.0879255271       -1.4144798736
 O         -0.1606457801        3.9781274014        1.7349380561
 H          0.4354807851        4.1127363446        0.9836092996
 H         -1.0063915751        4.3913337241        1.4638626913
 O         -1.3529394500       -2.9395286890       -2.5873394811
 H         -0.5492517702       -3.4225058821       -2.8564776112
 H         -1.7664445392       -3.4242955801       -1.8617707720
 O          2.5344941749        3.2827228008       -3.0185086605
 H          3.2293377838        3.6505029794       -3.5649537311
 H          2.7758054975        2.3483063346       -2.8438722085
 O          3.1495691369        1.1482829967        1.9557213894
 H          2.6754643343        1.3290524774        1.1182307024
 H          2.5676441064        1.5462374648        2.6252703559
 O         -3.2648058761       -0.0828918214        1.9611509232
 H         -2.8824378437       -0.3819709394        1.1080775789
 H         -3.6851224012        0.7543661639        1.7170058820
 O         -4.2453225370        2.1444024614        0.3922707070
 H         -4.1245037692        1.7533154236       -0.4873414662
 H         -5.1400624094        2.4856940670        0.4204358303
 O         -2.6780396859       -1.0011140349       -3.9986280017
 H         -3.0325270631       -1.3932857155       -4.7969706937
 H         -2.2708247586       -1.7269351888       -3.4869455123
 O          2.3834124528       -1.4866125047       -0.1879008009
 H          2.3475392253       -1.5319971643        0.7948361339
 H          3.2200874639       -1.0381995389       -0.3816233400
 O          3.0676087096        0.7145264456       -2.3840556176
 H          3.8782022317        0.4398633887       -1.9418080844
 H          2.7572157052       -0.0418706429       -2.9429002812
 O          1.0024530294        2.1006093059        3.4214044094
 H          0.7397342764        2.9483081410        3.0354964282
 H          0.1964897703        1.5559883965        3.3999480448
 O         -2.3902309873       -0.8976299691       -0.4320962509
 H         -2.5835029330       -1.8408990245       -0.5455112818
 H         -1.4772839522       -0.7557535852       -0.7597503469
 O          4.7204839822       -0.0101687742       -0.1663489009
 H          5.5851899632       -0.3764631137        0.0231690330
 H          4.4453774593        0.4834811703        0.6204938032
 O         -1.2368904649        1.8290115526       -1.5248729262
 H         -2.1267610852        1.5948151921       -1.8375063512
 H         -0.8021168872        2.3133294197       -2.2425580552
 O         -3.0405008247       -3.6109234711       -0.4088111087
 H         -3.9203558155       -3.9452560606       -0.5866374979
 H         -2.9384459520       -3.5895432119        0.5572522548
 O         -0.1022687296        2.9840908253       -3.7727854188
 H          0.8430664598        3.1532411446       -3.6229516739
 H         -0.1539147692        2.0532353075       -4.0728886116
 O          1.7460967798        0.6887961138        5.6754492463
 H          1.5743071164        1.3659740142        4.9987674937
 H          2.6227047178        0.8537918679        6.0234490161
