  117
       -193.22805943
 H          2.8292837018        0.8818904644       -3.0876862620
 C          3.5394267204        1.3544934329       -2.4038040350
 H          4.3868773847        1.7252937040       -2.9845347394
 C          4.0465642685        0.3298859723       -1.3907592883
 H          4.7584247129        0.7966254969       -0.7115076613
 H          4.5408163389       -0.4804666294       -1.9216523462
 O          2.9511817161        2.4727928133       -1.7727075340
 H          2.0078384239        2.2735342018       -1.5982472699
 N          2.9363832848       -0.2068563660       -0.5884324222
 H          3.2477983623       -0.9572165563        0.0735777953
 H          2.1827956850       -0.6194963499       -1.1721788880
 H          2.4831571330        0.5313556422       -0.0019111002
 O          5.7403868168       -2.3112292743       -1.4655905391
 H          5.8398381851       -1.9348093216       -0.5611311436
 H          6.4733884067       -2.9148594582       -1.5860490146
 O          3.1850442717       -2.2686069300        1.1595514503
 H          2.8079829677       -2.1600227433        2.0459374877
 H          2.5861527413       -2.8788832353        0.6758863520
 O         -0.7344058953        0.3432768739        2.4432759409
 H         -0.5855836943       -0.6177655724        2.5228403190
 H         -1.7058218533        0.4490841635        2.3836088654
 O          0.2992389179        1.2434909980        4.8609072520
 H          0.0312645460        2.1662591810        4.8910679471
 H         -0.1944020201        0.8448307064        4.1222170541
 O          1.3691097754       -3.5777701981       -0.2941311741
 H          1.0290854030       -2.7732454807       -0.7426286182
 H          0.6085281563       -3.9516026577        0.1692215495
 O          4.5568088492        1.1407247527        1.5680530105
 H          4.4649144409        2.0686229406        1.2996893178
 H          4.0913057555        1.0630982978        2.4094514029
 O         -1.8947677588        1.3985968511       -0.0885300595
 H         -2.4112054151        1.6522674130       -0.8780539656
 H         -2.2314723616        1.9792565256        0.6257692601
 O         -3.1716197603        2.2807203809       -2.3032601942
 H         -3.9074319509        1.6704925114       -2.4661995243
 H         -2.4837154896        2.0769265241       -2.9671877531
 O          4.0435131010        3.6356506549        0.4158882930
 H          4.7524028191        4.2337544276        0.1781187482
 H          3.7030223968        3.2520681228       -0.4219361668
 O          2.1736448411       -1.1269775041       -4.2279471394
 H          2.5734944706       -1.4279996801       -5.0442110457
 H          2.5185577541       -1.7231054243       -3.5288031567
 O          1.4388187298        1.2700163126        1.1269214092
 H          1.9356588830        1.1313171471        1.9720154308
 H          0.5677871528        0.8728178128        1.2914290764
 O         -0.9920593993        1.6351920138       -3.7886380775
 H         -0.4285520772        1.7661638752       -2.9731931237
 H         -0.6345278762        2.2149769345       -4.4616984965
 O          2.0132616086       -1.9577768146        3.6380927117
 H          2.2469052304       -2.4149773840        4.4465145148
 H          1.0543146342       -2.0827134486        3.5000334592
 O         -2.9279234039        4.5109593581       -0.7015076574
 H         -3.4000076377        5.2643734734       -1.0574570235
 H         -3.0812141870        3.7666350162       -1.3136399835
 O         -2.3110094393       -2.5075834953       -2.3264913626
 H         -1.7129740835       -2.1089777433       -2.9781125239
 H         -2.1074941410       -2.0751011500       -1.4708179472
 O         -2.8929948013        3.1345017231        1.7186246595
 H         -3.0265495566        3.8270642104        1.0567540974
 H         -2.0979371448        3.3800786953        2.2391757998
 O          1.3671526364        3.9588177784        1.0702385423
 H          2.2977836753        4.2149887115        1.0263109460
 H          1.3907804424        2.9832753009        0.9613708888
 O          0.2901519549        2.0335147340       -1.5547437994
 H          0.1394653013        3.0145562904       -1.4650569906
 H         -0.3169460054        1.6373717490       -0.9007133373
 O         -0.1636866417        4.5522758514       -1.0928778827
 H         -1.0946991587        4.6573636417       -0.8414873133
 H          0.3645610521        4.5760788828       -0.2728326707
 O         -5.1782704117        0.4054390063       -2.4754344052
 H         -5.0335809708       -0.5424336990       -2.6840527388
 H         -6.0573161304        0.6295117351       -2.7826965224
 O         -0.4734762656       -1.0574081948       -3.7841775878
 H          0.4383693465       -1.1273394274       -4.1327063007
 H         -0.7368859512       -0.1272082731       -3.8977350133
 O          0.5473791299       -1.2371861106       -1.3055259551
 H          0.1882105468       -1.2008770764       -2.2162798397
 H         -0.2168355280       -1.1493069629       -0.7126495742
 O          5.7739049860       -1.3281239557        1.0268241522
 H          5.5602162028       -0.4054135290        1.2316365450
 H          4.9937220592       -1.8357246912        1.2914211193
 O         -5.6257701524       -2.7616685404       -0.2627000336
 H         -6.4338734539       -3.2752440515       -0.2445585906
 H         -5.3641946026       -2.6626211808       -1.2040680042
 O         -1.7694834585       -1.2655760985        0.0201325967
 H         -2.0150703631       -0.3199777488        0.0687149258
 H         -2.3905043400       -1.7764539969        0.5659306738
 O         -3.4274640655        0.5635049052        2.4724268797
 H         -3.8550735375        0.2982152914        1.6322144745
 H         -3.4960061004        1.5290924103        2.4917038883
 O         -0.5125586635        3.2582415691        2.9082943854
 H         -0.3903917135        2.3300770691        2.6698528891
 H          0.1559086548        3.7473895328        2.3992536428
 O         -4.5472989002       -0.2184071881        0.1797544036
 H         -5.0251750130       -1.0573958916        0.1658067668
 H         -4.7236216592        0.2028097301       -0.6730115098
 O          3.1878833722       -2.7397509095       -2.3404415138
 H          4.1133992135       -2.6833111207       -2.0429320043
 H          2.7310389018       -3.3333148986       -1.7360400558
 O         -3.2269677010       -1.8096345502        3.7373551751
 H         -3.3406705220       -0.8998134388        3.3949883641
 H         -3.6154206099       -1.8256866344        4.6125694687
 O         -3.3678293621       -3.0817695755        1.2806776666
 H         -3.5318289306       -2.7524937364        2.1773351190
 H         -4.2068590503       -3.0617823483        0.7922110252
 O          2.5434102065        0.7421265011        3.4718935932
 H          1.8781277412        1.0558364982        4.1191532622
 H          2.5051721078       -0.2262214244        3.5402223730
 O         -0.9444813283       -4.3054777784        1.1624569714
 H         -1.8418588837       -3.9653436495        0.9892401251
 H         -1.0346627568       -5.2340529025        1.3800543432
 O         -0.5909853787       -2.3022491668        2.9954412573
 H         -1.4735583908       -2.2686463350        3.4000224333
 H         -0.6262922038       -3.0000179414        2.3153229749
 O         -4.8160697414       -2.2472252112       -2.7900221785
 H         -3.8235805448       -2.3555471480       -2.6283247246
 H         -5.0130799019       -2.7704333286       -3.5678190189
