  87
       -147.60564384
 O          3.5475041040       -2.7058232432        0.7636028738
 H          4.0061387972       -3.4275328383        1.1942701802
 H          2.9704004241       -2.2962329374        1.4660525489
 O          0.2475015889       -3.2883477411       -1.9932653290
 H         -0.6557647482       -3.6612297502       -1.9177305488
 H          0.2704251285       -2.5664325891       -1.3399994092
 O         -1.3554799494        0.5320274255        1.0187923559
 H         -2.1945702162        0.0121589998        1.1553042856
 H         -1.4920818062        1.1205948050        0.2458215233
 O         -2.3339038494       -3.9855852796       -1.6818658176
 H         -2.8040885060       -4.6512359465       -2.1834434036
 H         -2.7601687364       -3.1146789607       -1.9238950174
 O         -0.1649691599       -0.5662453221        3.2645737167
 H          0.1936897045        0.2751714619        3.6173070720
 H         -0.5451755909       -0.3153374142        2.4091838716
 O         -3.3140376010       -1.0714307775        1.6072546964
 H         -3.3338062044       -1.0238246734        2.5794287128
 H         -2.7885049787       -1.8922231966        1.3966780441
 O          0.2678672348       -1.1063711388       -0.3391335784
 H          1.1014795128       -0.5921609986       -0.4467604913
 H         -0.3046303964       -0.5491608650        0.2301566601
 O          2.3419257486        0.4597268068       -0.8119343294
 H          3.1936256049        0.2354811767       -0.3924074850
 H          2.4656558967        0.1985722218       -1.7572833632
 O         -0.2319704386        4.0010599073       -0.1772855859
 H          0.0710839555        4.6072634600       -0.8534380835
 H         -0.6924370855        3.2669326573       -0.6386945989
 O          2.7938662631       -0.6809934963       -3.1421903646
 H          2.0187662814       -0.8682956901       -3.6895978106
 H          3.0396857543       -1.5540342782       -2.7674867399
 O          2.3336069589       -1.5157486437        2.7262255197
 H          2.7923471035       -0.6528694061        2.7338543576
 H          1.3940035809       -1.3177739339        2.8963599687
 O          0.9519315687        1.8425262056        3.6614545243
 H          1.1013252804        2.0325004261        2.7115618724
 H          1.8266159666        1.7888452309        4.0517874408
 O         -1.0244449309       -0.2449076596       -2.5663116017
 H         -0.5402917171       -0.5820428722       -3.3352365544
 H         -0.5510980586       -0.6042950808       -1.7833630552
 O          0.4671976140       -1.8200145150       -4.2143381463
 H          0.4130319487       -2.4528346511       -3.4555984524
 H          0.3223425125       -2.3284455626       -5.0113910158
 O         -4.0924264906        2.6369778805       -0.4666903945
 H         -3.6503684041        3.1906972176        0.2352649512
 H         -4.8227411090        3.1603786995       -0.7960885620
 O         -1.6126349463        1.9868876314       -1.2391244387
 H         -2.5702772443        2.1660603751       -1.1959260901
 H         -1.4609929293        1.2770220255       -1.8913644192
 O         -1.7935238268        2.3950586796        3.0410180097
 H         -0.9717219074        2.4744643553        3.5346017432
 H         -1.6394533959        1.6998811014        2.3781107598
 O          4.7517893670       -0.3889820130        0.1565021966
 H          5.3100572379       -0.4885578120       -0.6160152770
 H          4.4048301086       -1.2840668373        0.3705060484
 O          1.5488450502        2.2992534822        1.0533290511
 H          0.9592549857        2.9948871259        0.7155589030
 H          1.6935726171        1.6890187240        0.3090146172
 O          3.0510460676       -3.0942352574       -1.9446450720
 H          2.1381582898       -3.4023787803       -2.0251794935
 H          3.2066245949       -2.9848865229       -0.9935856147
 O         -2.7254565653        4.1318911613        1.2129111818
 H         -1.8635683124        4.2886156609        0.8010775077
 H         -2.5234379386        3.5935652693        2.0055112885
 O          3.5943142396        0.9017789993        2.4132322329
 H          3.0142240622        1.5096366599        1.9323492466
 H          4.2438124614        0.5981256118        1.7675111369
 O         -3.3434486910       -1.6929407580       -2.4200290559
 H         -2.5656551182       -1.1205948814       -2.5498398214
 H         -3.9199880248       -1.2024076445       -1.8009087369
 O         -4.6417590430       -0.1505325649       -0.6037926473
 H         -4.3457943955       -0.5175662501        0.2444518191
 H         -4.5147699900        0.8059949437       -0.5370716742
 O         -2.6535534446       -1.1704870954        4.2507020934
 H         -1.7275543240       -0.9459516339        4.0335999182
 H         -2.6278280928       -1.9605809071        4.7899519902
 O         -2.1069474503       -3.3573970234        1.0607393311
 H         -1.1568285616       -3.5051536125        1.2131156004
 H         -2.2832311610       -3.6731101019        0.1632243951
 O          1.1937551886        2.6255448351       -2.4579464293
 H          1.2937510864        2.3637934333       -3.3742490342
 H          1.2907836238        1.8238073791       -1.9302568508
 O          3.6947585915        3.1381300005       -1.1789669919
 H          2.9005151835        3.1450123400       -1.7308708124
 H          3.3939001880        3.2682887440       -0.2772258750
 O          0.5993192936       -3.4118243588        1.2691664229
 H          0.6453654976       -2.5948075640        0.7481663883
 H          1.0330916592       -3.2387572202        2.1065571480
