  87
       -147.60564384
 O          3.5475041040       -2.7058232432        0.7636028738
 H          4.0061387972       -3.4275328383        1.1942701802
 H          2.9704004241       -2.2962329374        1.4660525489
 O          0.2475015889       -3.2883477411       -1.9932653290
 H         -0.6557647482       -3.6612297502       -1.9177305488
 H          0.2704251285       -2.5664325891       -1.3399994092
 O         -1.3554799494        0.5320274255        1.0187923559
 H         -2.1945702162        0.0121589998        1.1553042856
 H         -1.4920818062        1.1205948050        0.2458215233
 O         -2.3339038494       -3.9855852796       -1.6818658176
 H         -2.8040885060       -4.6512359465       -2.1834434036
 H         -2.7601687364       -3.1146789607       -1.9238950174
 O         -0.1649691599       -0.5662453221        3.2645737167
 H          0.1936897045        0.2751714619        3.6173070720
 H         -0.5451755909       -0.3153374142        2.4091838716
 O         -3.3140376010       -1.0714307775        1.6072546964
 H         -3.3338062044       -1.0238246734        2.5794287128
 H         -2.7885049787       -1.8922231966        1.3966780441
 O          0.2678672348       -1.1063711388       -0.3391335784
 H          1.1014795128       -0.5921609986       -0.4467604913
 H         -0.3046303964       -0.5491608650        0.2301566601
 O          2.3419257486        0.4597268068       -0.8119343294
 H          3.1936256049        0.2354811767       -0.3924074850
 H          2.4656558967        0.1985722218       -1.7572833632
 O         -0.2319704386        4.0010599073       -0.1772855859
 H          0.0710839555        4.6072634600       -0.8534380835
 H         -0.6924370855        3.2669326573       -0.6386945989
 O          2.7938662631       -0.6809934963       -3.1421903646
 H          2.0187662814       -0.8682956901       -3.6895978106
 H          3.0396857543       -1.5540342782       -2.7674867399
 O          2.3336069589       -1.5157486437        2.7262255197
 H          2.7923471035       -0.6528694061        2.7338543576
 H          1.3940035809       -1.3177739339        2.8963599687
 O          0.9519315687        1.8425262056        3.6614545243
 H          1.1013252804        2.0325004261        2.7115618724
 H          1.8266159666        1.7888452309        4.0517874408
 O         -1.0244449309       -0.2449076596       -2.5663116017
 H         -0.5402917171       -0.5820428722       -3.3352365544
 H         -0.5510980586       -0.6042950808       -1.7833630552
 O          0.4671976140       -1.8200145150       -4.2143381463
 H          0.4130319487       -2.4528346511       -3.4555984524
 H          0.3223425125       -2.3284455626       -5.0113910158
 O         -4.0924264906        2.6369778805       -0.4666903945
 H         -3.6503684041        3.1906972176        0.2352649512
 H         -4.8227411090        3.1603786995       -0.7960885620
 O         -1.6126349463        1.9868876314       -1.2391244387
 H         -2.5702772443        2.1660603751       -1.1959260901
 H         -1.4609929293        1.2770220255       -1.8913644192
 O         -1.7935238268        2.3950586796        3.0410180097
 H         -0.9717219074        2.4744643553        3.5346017432
 H         -1.6394533959        1.6998811014        2.3781107598
 O          4.7517893670       -0.3889820130        0.1565021966
 H          5.3100572379       -0.4885578120       -0.6160152770
 H          4.4048301086       -1.2840668373        0.3705060484
 O          1.5488450502        2.2992534822        1.0533290511
 H          0.9592549857        2.9948871259        0.7155589030
 H          1.6935726171        1.6890187240        0.3090146172
 O          3.0510460676       -3.0942352574       -1.9446450720
 H          2.1381582898       -3.4023787803       -2.0251794935
 H          3.2066245949       -2.9848865229       -0.9935856147
 O         -2.7254565653        4.1318911613        1.2129111818
 H         -1.8635683124        4.2886156609        0.8010775077
 H         -2.5234379386        3.5935652693        2.0055112885
 O          3.5943142396        0.9017789993        2.4132322329
 H          3.0142240622        1.5096366599        1.9323492466
 H          4.2438124614        0.5981256118        1.7675111369
 O         -3.3434486910       -1.6929407580       -2.4200290559
 H         -2.5656551182       -1.1205948814       -2.5498398214
 H         -3.9199880248       -1.2024076445       -1.8009087369
 O         -4.6417590430       -0.1505325649       -0.6037926473
 H         -4.3457943955       -0.5175662501        0.2444518191
 H         -4.5147699900        0.8059949437       -0.5370716742
 O         -2.6535534446       -1.1704870954        4.2507020934
 H         -1.7275543240       -0.9459516339        4.0335999182
 H         -2.6278280928       -1.9605809071        4.7899519902
 O         -2.1069474503       -3.3573970234        1.0607393311
 H         -1.1568285616       -3.5051536125        1.2131156004
 H         -2.2832311610       -3.6731101019        0.1632243951
 O          1.1937551886        2.6255448351       -2.4579464293
 H          1.2937510864        2.3637934333       -3.3742490342
 H          1.2907836238        1.8238073791       -1.9302568508
 O          3.6947585915        3.1381300005       -1.1789669919
 H          2.9005151835        3.1450123400       -1.7308708124
 H          3.3939001880        3.2682887440       -0.2772258750
 O          0.5993192936       -3.4118243588        1.2691664229
 H          0.6453654976       -2.5948075640        0.7481663883
 H          1.0330916592       -3.2387572202        2.1065571480
  87
       -147.60275941
 O          4.2379972542       -1.5268746372       -1.3528351138
 H          5.0713943086       -1.7312596064       -1.7769312535
 H          3.7010778750       -2.3642814282       -1.3935084434
 O         -0.9230618018       -4.4937056078        0.2525794015
 H         -0.3681580963       -3.8790098860        0.7665737535
 H         -1.7030554135       -3.9662880308        0.0301516653
 O         -0.9816801917        0.2671545123        3.1156595394
 H         -1.6350412134        0.9811958197        3.1354628997
 H         -0.1028069640        0.7119862066        3.1745661130
 O         -1.1438991837       -0.2538061490        0.4984528465
 H         -1.0322857187       -0.2636372408        1.4767878502
 H         -1.4276577511       -1.1432177938        0.2123062867
 O         -3.4695529273        1.0015681180        0.5428198507
 H         -2.5930107765        0.5456133492        0.4838550370
 H         -3.4734178617        1.4188110994        1.4150280796
 O          0.5834296490       -2.5707294000        1.4298840548
 H          0.8540878268       -1.6977761023        1.0904285599
 H          0.4307050735       -2.4401841933        2.4050431517
 O          0.4088065506       -4.5375302247       -2.0330114318
 H          0.4773011029       -5.4528669571       -2.3057832883
 H         -0.0830395810       -4.5495073516       -1.1704453533
 O          2.9703512557        0.9572738278       -1.2365870512
 H          3.4612503057        0.1401899371       -1.4192956862
 H          2.4381484413        1.1649447448       -2.0099382190
 O          0.0314787887        2.0899748804       -0.1909792570
 H         -0.2429431104        1.1811941358        0.0253479218
 H          0.4713247850        2.0670395684       -1.0562635382
 O          1.0762192855        2.5788403863       -2.6922598871
 H          1.6194408189        3.3477942309       -2.5099801289
 H          0.1754516794        2.9069677580       -2.8905457398
 O          4.0432317885       -1.5895611584        1.4472796620
 H          3.7287546687       -2.5118977021        1.5093964484
 H          4.3294758450       -1.4815676237        0.5251489018
 O          1.1087671250        3.7207038187        1.7231629597
 H          0.8823082533        3.1383204334        0.9747579161
 H          0.3364018866        4.2732265560        1.8583818717
 O         -1.4666135972        3.4181367156       -3.0581319364
 H         -2.1508862981        3.1237712828       -2.4056116737
 H         -1.6642126160        4.3359672220       -3.2460431589
 O          2.7695395240       -3.9958785086        1.4280134282
 H          1.9026734502       -3.5008502421        1.4225030597
 H          2.7198990875       -4.6154900053        2.1556966397
 O         -1.8213085776        3.8599143316        0.6453190294
 H         -1.1560213527        3.2321612253        0.2901925900
 H         -2.5420436384        3.8445939320        0.0068279488
 O         -3.4777099162        2.7519516725       -1.4596268278
 H         -3.4557187332        2.1080933333       -0.7117045411
 H         -4.0309789347        2.3105351307       -2.1211916329
 O         -4.5474086856        0.9688616042       -3.2991792750
 H         -3.6375218338        0.8279498796       -3.6919164007
 H         -5.1819812934        0.8750414282       -4.0091548040
 O          2.9744308054       -3.8281181844       -1.3338569533
 H          2.9524979807       -4.0372500165       -0.3867289510
 H          2.0633677547       -3.9721255734       -1.6554230978
 O          1.4458285783        1.3467106335        3.0158386824
 H          1.4454497182        2.2828613404        2.7514362253
 H          1.5969214645        0.8434597306        2.1804428957
 O          0.3605671854       -2.0504805962        3.9726748900
 H          1.2533073228       -1.6823361808        4.1410881628
 H         -0.2397234129       -1.2930871585        3.9374289825
 O          2.8014920157       -0.8477054561        4.0496465584
 H          2.4659919721        0.0457488319        3.8759346179
 H          3.3880838643       -1.0623043323        3.3150598859
 O          1.8254450244       -0.1965940644        0.8870411750
 H          2.6355225585       -0.6723976300        1.1744097701
 H          2.1230138358        0.3322497029        0.1192289601
 O         -2.3335406932       -2.3557978024       -0.7409005673
 H         -1.8894515588       -2.4562975876       -1.5857458325
 H         -3.1909153915       -1.9056489763       -0.9196006777
 O         -4.5107884079       -0.8694452823       -1.1967646112
 H         -4.3859801031       -0.2644821547       -0.4491888704
 H         -4.5744377846       -0.2923720080       -1.9754505361
 O         -2.6856305696        2.4794379854        2.7571844830
 H         -2.3213381236        3.0518027513        2.0370071968
 H         -3.0032024288        3.0646947135        3.4439294611
 O         -0.1883707947       -0.9630084971       -2.2901504657
 H         -0.1854920828       -0.6949182819       -1.3624241893
 H          0.1724681275       -1.8541073716       -2.3268171824
 O         -1.9478067045        0.7958110532       -3.9783287310
 H         -1.6356075541        1.7007598252       -3.8344741403
 H         -1.3858958703        0.2212062223       -3.4434258325
 O          2.9434369199        3.6954411253       -0.7605115317
 H          3.2020390037        2.7638823955       -0.8216782548
 H          2.7668102928        3.8625971794        0.1694811616
 O          1.9701934572        0.1856598156       -3.7725939320
 H          1.1882747564       -0.2477731719       -3.4065658521
 H          1.7048609044        1.0879352119       -3.9712836722
  87
       -147.58552474
 O          2.3271056115       -0.6625574745       -3.4595228824
 H          3.0708294231       -0.8275910699       -2.8590501529
 H          1.6669108159       -1.3409964909       -3.2701150817
 O         -0.7510491210       -4.3573146171       -0.9090411209
 H         -1.6876377233       -4.1430785837       -0.7704981602
 H         -0.3425277332       -4.2523728922       -0.0202651327
 O         -3.1501986346       -0.5651617277        3.3000518435
 H         -3.0655938272       -0.4239050631        4.2436119345
 H         -2.8699714889        0.2691842774        2.8768377567
 O         -3.3006111345       -3.4809865713       -0.2746409667
 H         -3.5953720556       -2.9037006454       -1.0114961982
 H         -4.0076019502       -4.1063072091       -0.1121565058
 O         -4.1386194981       -2.0004715440       -2.3522990599
 H         -5.0722143809       -1.8748994386       -2.5229499402
 H         -3.7304786160       -1.0905576423       -2.3551136160
 O         -1.8695540831       -2.5753058157        1.9958235391
 H         -2.4353341103       -2.8344673336        1.2546417733
 H         -2.3872769334       -1.9377415158        2.5246567923
 O          0.1717821275       -2.3799669106       -2.4232288833
 H         -0.1789960866       -3.1557999016       -1.9199575802
 H         -0.4511202419       -2.2835020493       -3.1735147035
 O          3.2719464813        1.3250222684       -0.4272957217
 H          3.7051159495        0.4989251369       -0.6918751188
 H          2.5635244440        1.4417773934       -1.0977268778
 O          0.8492888338        4.1403450585       -1.8397579233
 H          0.9871271117        3.2049824178       -2.1008882783
 H          1.0989947577        4.6767924357       -2.5920089710
 O          1.3344826477        1.5397205184       -2.2929178342
 H          0.5794380816        1.0325297372       -1.9075762826
 H          1.7325364384        0.9114829833       -2.9302603315
 O          4.1373706446       -1.1454402617       -1.3587594784
 H          3.4584442480       -1.7152937534       -0.9213135455
 H          4.9700275080       -1.6142113790       -1.3069288760
 O          0.8458554447        4.2491683191        4.4884950369
 H          1.7455464344        4.1970544944        4.0994456079
 H          0.8214940432        3.6060885581        5.1979924361
 O         -0.5518176354       -0.0198566313       -1.3247788030
 H         -0.2674311851       -0.8799931417       -1.6936420296
 H         -0.4171753614       -0.1081759682       -0.3104698352
 O          1.9677476922       -5.3258332662       -0.5614546327
 H          1.6972465507       -5.4327752964        0.3570492011
 H          1.1554966839       -5.3842608714       -1.0782798759
 O         -1.4721271165        4.5582870745       -0.2525731410
 H         -0.6902172075        4.5288345158       -0.8225297973
 H         -1.1466098853        4.4437363214        0.6572351759
 O         -2.5268524904        2.1404144669       -0.5159413534
 H         -2.2908616403        3.0978336019       -0.4833254255
 H         -1.6929930197        1.6821115149       -0.6706074730
 O         -2.1969827063        1.7204763174        2.1575888189
 H         -1.5764175182        2.4665269418        2.2744739716
 H         -2.5591217280        1.8441961270        1.2602485631
 O          2.1586906786       -2.6415088809       -0.4405292139
 H          2.2822982670       -3.6112272149       -0.5257331858
 H          1.4973836760       -2.4170685073       -1.1107190962
 O          3.1490979042        3.8824415627        3.1253155580
 H          2.7937083517        4.0980823665        2.2511284280
 H          3.5780912001        3.0188900908        3.0025266473
 O          0.4294797689       -3.9240455577        1.4763896096
 H          1.0395750882       -3.2144416239        1.2349547402
 H         -0.3421433555       -3.4959738864        1.8859156158
 O          4.3483261637        1.5852538982        2.1203654679
 H          5.2639886464        1.8043729605        1.9431503417
 H          3.9273396206        1.4499812662        1.2542900958
 O          1.9789425146        3.6144370569        0.6173565107
 H          2.4771621831        2.8276519629        0.3587814663
 H          1.6354915952        3.9880895777       -0.2098784175
 O         -1.8790929251       -1.9443287258       -4.1159418768
 H         -2.0144603961       -0.9932832684       -4.1704687130
 H         -2.6492683714       -2.2847955021       -3.6406553733
 O         -2.9307983937        0.3075021024       -2.5192298172
 H         -3.2554890027        1.0528558880       -1.9941614957
 H         -2.0424077958        0.1360278641       -2.1330115228
 O         -0.3261290575        3.6801051892        2.1123280774
 H          0.5114528106        3.5417057284        1.6329944130
 H         -0.0593912487        3.9951262507        2.9973721423
 O         -0.4712694614       -0.3406482569        1.2561905793
 H         -0.9586812297       -1.1652552148        1.4750464740
 H         -0.8895296207        0.3670861822        1.7839547215
 O         -3.8024628520       -0.5116280613        0.3081302345
 H         -3.9362723329       -0.5746239826        1.2567444963
 H         -3.5791175857        0.4030879654        0.1141227026
 O          1.9021752028       -1.1621879410        2.3492136144
 H          2.6878960963       -0.7218380377        2.0226281502
 H          1.1557152474       -0.8603969911        1.8024764490
 O          0.4478826943        0.7309431157        3.8871966668
 H          0.9560683801       -0.0531898210        3.6297095603
 H          0.9943593208        1.4874092769        3.6667909320
  87
       -147.58557807
 O          3.7678183192       -1.3741371524        2.6184249456
 H          4.0503388021       -0.4586965004        2.4545635329
 H          3.7107887709       -1.7868622826        1.7376165171
 O         -1.7543336249       -2.8387439604       -3.1510010887
 H         -2.3406450695       -3.2527301899       -3.7844438227
 H         -2.1713158240       -2.9265315894       -2.2674657671
 O         -0.6232375497       -1.5535959319        2.0613515710
 H         -1.4726226013       -1.2118255573        2.4401352427
 H          0.0827348238       -1.3340021523        2.6907843191
 O         -2.8819622072       -3.1335419832       -0.7152750526
 H         -3.5320306437       -3.8203862012       -0.5592197127
 H         -2.1038760709       -3.3521355839       -0.1470753430
 O         -2.9213600972       -0.5732777904        2.8648589809
 H         -3.4981073892       -0.7033543495        2.0871583815
 H         -2.7999151209        0.3870104022        2.9488085161
 O          1.6521068645       -3.9491800205       -0.4675634843
 H          1.4724182517       -3.7113785866       -1.4002382123
 H          0.8004151759       -3.8856956510       -0.0084546132
 O          1.0677199886       -3.0445638465       -2.9428307428
 H          0.1065420541       -3.0193513506       -3.0517955525
 H          1.3870804704       -2.1402930467       -3.0829092776
 O          1.9238182871        2.5271348172       -3.3410869783
 H          2.6018464491        2.7262142215       -2.6920532479
 H          1.8890206866        1.5598115478       -3.4039320875
 O         -0.4429555774        3.8411558288       -2.4138492391
 H         -1.1779322014        3.2790608963       -2.7388216979
 H          0.3639233318        3.4458272292       -2.7799932346
 O          1.6714919724       -0.3204815885       -3.5522000745
 H          1.7382930175       -0.3719987300       -4.5068593658
 H          0.6919224997       -0.2394276345       -3.3372280413
 O          1.4473069625       -0.9074374811        3.7666678882
 H          2.3100178053       -1.1476554565        3.3303341404
 H          1.4965070098       -1.2393101915        4.6631380004
 O         -0.2970472563        3.4817723422        2.7673258611
 H         -0.2724304270        3.7713825293        1.8442829632
 H          0.5078342648        2.9599597411        2.9428976393
 O         -0.8425584531       -0.2465364942       -2.9639570952
 H         -1.2342218338       -1.1115631022       -3.1521200492
 H         -0.9224986280       -0.1326007482       -1.9497320495
 O          3.7780532465       -2.5251948355        0.0883545691
 H          4.4817064966       -3.1746847886        0.0572042552
 H          2.9388348733       -3.0343725503       -0.0680768199
 O         -0.9371756932        4.5243867279        0.0999441475
 H         -0.7197759174        4.2757605347       -0.8343151612
 H         -1.0395876655        5.4766342404        0.0997062732
 O         -2.3504773887        2.0528032293       -3.1323691429
 H         -2.9347484259        1.8438103529       -2.3860316324
 H         -1.7940293674        1.2641177504       -3.2457118067
 O         -3.3205520172        3.2812185404        0.6933596483
 H         -2.4912112396        3.7369319414        0.4516788275
 H         -3.1379768875        2.8547008939        1.5507710673
 O          4.0791799468       -0.6988877253       -1.9789239166
 H          3.9244229918       -1.3741599664       -1.2920717948
 H          3.2432506754       -0.5864741599       -2.4500944753
 O          4.3879762169        1.2819537760        2.0481677522
 H          4.5017801160        1.3466012758        1.0752781347
 H          5.0779419993        1.8169000225        2.4414653197
 O         -0.8243540409       -3.7921953140        0.8434741826
 H         -0.9375577994       -4.4662584461        1.5142985801
 H         -0.7047465465       -2.9256619853        1.3393840887
 O          1.8694770175        1.8404263947        3.3229797686
 H          2.7132564966        1.7214744605        2.8619054863
 H          1.5802951165        0.9448425234        3.5585460731
 O          4.9542996250        1.4074631665       -0.6139546505
 H          5.8853153573        1.4627961845       -0.8314676620
 H          4.6046342623        0.6456083960       -1.1408740936
 O         -4.2379575373       -0.9255158034        0.4886323028
 H         -4.2350185071       -0.1178240305       -0.0549779838
 H         -3.7554864033       -1.5997486057       -0.0103009007
 O         -4.0399029993        1.4175395790       -0.9714643147
 H         -4.9020699936        1.6910567272       -1.2870763059
 H         -3.7526937314        2.1343342362       -0.3337924482
 O         -2.5427784633        2.1745606397        3.0749161909
 H         -2.9523481719        2.5313665534        3.8633983194
 H         -1.6549315978        2.6216571722        3.0027072082
 O         -0.7300759587        0.0094327815       -0.3394005652
 H          0.1429371563        0.4303049855       -0.2720886773
 H         -0.7635417452       -0.6218177946        0.3940457420
 O          1.7957647698        1.0456913392       -0.1352193493
 H          2.6810456450        0.7232373561       -0.3034288024
 H          1.8774105266        1.9964559634        0.0543574269
 O         -3.5765338280       -3.4974518711        2.0923438669
 H         -4.1987706032       -2.9104702498        1.6529545243
 H         -3.1243469650       -2.9379392925        2.7294094895
 O          1.8896560065        3.7003897244        0.5583186623
 H          1.0112020374        4.0280264711        0.3202357012
 H          1.9418208851        3.6561617618        1.5173605343
