  612
      -1033.77004891
 H         -1.9427532302        0.6442791055        0.4090914577
 C         -0.9859870188        0.4599210936        0.8986568202
 H         -0.7248346902        1.3086047490        1.5306855751
 C          0.0587385020        0.2694338641       -0.1818833339
 H          0.0985585387        1.1658140230       -0.7918881393
 H         -0.2041948852       -0.5864716167       -0.7934928421
 O         -1.0932574764       -0.6672776655        1.7514694344
 H         -0.8696798212       -1.4557306168        1.2211587845
 N          1.3738078443        0.0402468263        0.4331563769
 H          1.2972407986       -0.5850683835        1.2659035049
 H          1.7062993142        0.9619057416        0.7907163453
 H          2.0512827978       -0.3643575835       -0.2425473750
 O          1.1410698033        7.7485770215        1.8035072203
 H          1.0181317613        7.3613644487        2.6839310986
 H          2.0765388005        7.9649619050        1.7025579120
 O          2.7170295234       -4.3561583600       -0.7567966863
 H          3.4021979055       -5.0405586228       -0.8456242337
 H          3.0324002809       -3.7031311813       -0.1096946164
 O          3.7543685920        6.5787265401        3.5943040457
 H          3.1157123104        5.8538230936        3.4689788673
 H          3.8304961817        7.0282012611        2.7397038290
 O          0.3128854413        1.9887370772        8.3626593294
 H         -0.4563879085        1.4151009521        8.4905337539
 H          0.9377097522        1.4410619539        7.8474394879
 O          2.1617739406        4.3655539464        3.2789660686
 H          2.3845055079        3.9224983657        4.1235640322
 H          1.3642818715        4.9089115287        3.4620242970
 O         -0.2974709000       -6.0013586888       -1.7954623478
 H         -1.0692310175       -5.4840360862       -2.1019326430
 H         -0.5874434844       -6.8783501827       -1.4730519397
 O          3.1989997893       -2.3257198302        1.0869114696
 H          2.5224958566       -2.7488163769        1.6634658833
 H          4.0443637490       -2.6948892741        1.3792981083
 O          8.0395595331        5.0492036867        2.5666971140
 H          8.6667650005        4.8282707237        1.8645981487
 H          7.2740317415        5.4149250377        2.0871824171
 O          1.6171477957        2.5913612441        1.1651523374
 H          1.7052684614        3.0869559651        1.9916168679
 H          0.7875778744        2.8730621335        0.7574948678
 O         -5.7612494387        0.1705186168        4.3758269091
 H         -5.1076780683        0.1260453750        5.1028305726
 H         -6.6465247863        0.2194323092        4.7971696582
 O         -1.6515905856        0.1367337992        7.8015545255
 H         -2.5993676553        0.0070603275        7.9046824738
 H         -1.5550678489        0.5117828539        6.8938272561
 O         -8.1939549372        0.2444492244        5.4231203223
 H         -8.7327986324       -0.5101628432        5.1171474194
 H         -8.4675406214        0.9969887761        4.8657972387
 O         -3.0118214727       -1.8381669486        4.9052052325
 H         -2.0526761535       -1.6691172033        4.7905362154
 H         -3.3646716161       -1.9199538778        3.9962271572
 O          3.9296870909        0.1862190262        1.3532820771
 H          4.8702570342        0.1522767653        1.0818558984
 H          3.6089099931       -0.7412254280        1.3000229360
 O         -0.7325011697       -8.2876266779       -0.4659540478
 H         -1.6644841711       -8.4593985394       -0.6372798725
 H         -0.7182828516       -7.9254494705        0.4455636268
 O         -0.2174629853        3.2810542362        6.1441157981
 H         -0.1064112891        2.9553992272        7.0705730911
 H         -0.6309849270        2.5221568638        5.6830170934
 O         -0.1190649754       -1.8398272128       -6.9623155200
 H         -0.1279716237       -2.4379933811       -6.1923055909
 H          0.8023275304       -1.7824959348       -7.2450825367
 O          1.1642868224       -2.8833069454       -2.2755210040
 H          0.4946769430       -2.7484383318       -1.5708601046
 H          1.7452015516       -3.5875847622       -1.9252442539
 O         -0.8054381246        3.4998428976        0.0155244624
 H         -1.1633969017        3.6648943058       -0.8770663384
 H         -0.3830934837        4.3345532464        0.2755068189
 O         -1.5227908467        5.4765494452        1.8877681757
 H         -2.3668052911        5.5471949443        2.3504877565
 H         -1.4601958886        6.2558706107        1.2906741883
 O         -0.5594744722        2.2103672677       -2.8732236380
 H          0.0338280200        1.5033194665       -3.1554182986
 H         -1.0004419965        2.5610854202       -3.6707555242
 O          1.1764143782        1.4196281213        4.0800412736
 H          2.0687405982        1.7441638166        3.8446151557
 H          0.5293387500        2.0671873732        3.7434418558
 O         -4.4635749960       -4.6713619952        2.3590523699
 H         -5.3738309908       -4.9831992340        2.4430097884
 H         -3.8888780145       -5.2692086710        2.8847453026
 O          1.4604247309       -3.6434222975        2.6045022391
 H          1.5980853959       -3.5314139098        3.5629865793
 H          0.5192837080       -3.4817632993        2.4265286739
 O         -0.7904311703       -6.9619768035        1.8831938571
 H         -0.1130941274       -7.0699878495        2.5663569965
 H         -0.4819505168       -6.1585552707        1.4096419564
 O          3.0374901367       -1.1070761846       -1.4819224338
 H          3.7691292752       -1.6556301558       -1.1565449916
 H          2.3849633001       -1.7235827283       -1.8766042640
 O         -7.6539569484        0.3379605460        1.1027302738
 H         -7.7124869395       -0.0948613064        0.2269060361
 H         -6.7792216640        0.0889076215        1.4563950952
 O          2.0032191892        1.6531175854       -1.9570646995
 H          1.8055829871        0.7909938095       -2.3416456613
 H          2.1428136400        2.2692042455       -2.7077781182
 O          3.8765300499       -0.9920305354        4.1246503944
 H          4.6200346935       -0.7297464887        3.5515750608
 H          3.9713272729       -1.9742410054        4.2225910669
 O          3.6790097226        4.6363025510       -1.9920975285
 H          3.2502369370        4.2591620740       -2.7874737267
 H          3.6830471964        3.9272392827       -1.3394051417
 O         -2.9792502128        0.7837869849        3.1769729157
 H         -2.3532601488        0.1539155270        2.7846615573
 H         -2.8469605200        1.6355678805        2.7117292463
 O         -1.2423596935       -3.5528939644        2.4452977592
 H         -1.1874125146       -3.9743497209        3.3269843909
 H         -1.8939765599       -2.8457986711        2.5145895304
 O          7.3056072036       -1.3402432105        5.1439685383
 H          7.9576921777       -0.6734420810        5.4090862375
 H          7.8064040761       -2.0982103906        4.7761075396
 O         -9.1451368953        2.2884171370       -1.0646564646
 H         -8.2804187739        1.8221617007       -1.1254606442
 H         -9.8289019212        1.6043584904       -1.2041698353
 O         -3.8020084446        2.7435488476       -2.8586387736
 H         -4.5900022594        2.8876248820       -3.4099032860
 H         -3.5290335757        1.8247497997       -2.9850764744
 O         11.5380772509        0.1072000375       -0.6987695182
 H         11.0098134250       -0.0743862706       -1.5118809130
 H         11.7608983662        1.0434293259       -0.7772686223
 O          2.3721508874       -4.1889480020       -6.2865231143
 H          2.5379530027       -3.4181745159       -6.8382383074
 H          1.5258655208       -4.0154752838       -5.8246803085
 O         -1.9567083027        2.9536679341       -5.0558834725
 H         -2.4651169632        3.7858901267       -5.0227305571
 H         -2.5834683322        2.2337795363       -4.8498128305
 O         -5.9441843785       -2.7460473437        0.5953304138
 H         -6.1525686199       -2.4212809274        1.4828985893
 H         -5.7486188297       -1.9727885710        0.0310261216
 O         -2.4468858090        0.4587460059       -2.0304430662
 H         -1.7454303517        1.1011800545       -2.2416574260
 H         -2.1509255792       -0.4109293558       -2.3587896220
 O          3.6703522002        1.8873084533        3.3045487810
 H          4.2797095584        1.7150437247        4.0342930608
 H          3.7365961433        1.1404999309        2.6653921201
 O         -1.5259166953        5.5733621232        5.9027643459
 H         -1.5903653586        5.8894095792        6.8027877896
 H         -1.1175258016        4.6718037690        5.9646364968
 O          5.2511959131       -2.3584806318        6.6627277478
 H          5.9668152194       -1.9840397848        6.1175456783
 H          5.3261891791       -3.3071790545        6.5384639582
 O          3.8791869516        2.3176230064       -0.3543895534
 H          3.9076116583        1.6585649339        0.3609606020
 H          3.0415694654        2.1066562220       -0.8361745346
 O          2.1420295306       -7.9668033591       -0.9686533832
 H          1.2472662989       -8.2888260739       -0.8105077333
 H          2.1031977765       -7.5253430956       -1.8389727358
 O         -6.4988396995       -2.0709339257        3.1389296007
 H         -6.3287818514       -2.6841417935        3.8749266985
 H         -6.2069388145       -1.1936882450        3.4550930683
 O         -7.0558567609       -5.6267329096        2.4660530594
 H         -7.4412469201       -6.3186716752        3.0012600248
 H         -7.6908331654       -4.8756791360        2.4457404360
 O         -3.3726913489        6.1655244384        3.8720823655
 H         -2.8350393341        6.2748794673        4.6679611052
 H         -4.3067470240        6.1124492360        4.1363328148
 O         -0.4173578356       -1.4584282776        4.7370718539
 H          0.2843790181       -1.4774093140        4.0542718342
 H         -0.1046308844       -1.8617764183        5.5629415862
 O          6.3042266580       -5.6735043723        0.9169643518
 H          7.0642437895       -5.4551173075        0.3599430398
 H          5.6603070858       -6.0689101892        0.2941163855
 O         -4.3942532957       -1.4358448697       -3.4924540525
 H         -4.1112972357       -2.2984706256       -3.8223371497
 H         -3.7664599653       -0.7760798062       -3.8403021160
 O         -0.6060094226       -6.0860249473       -4.6948070097
 H          0.2496785009       -6.4608270663       -4.4362581512
 H         -1.2796017889       -6.4747972571       -4.1041259200
 O          5.6667461380        3.3218872456        2.3413163905
 H          5.8207228493        3.9663068459        3.0587779415
 H          4.8590804024        2.8377812445        2.6088394139
 O         -5.1637579589       -0.7869772760       -1.0458524032
 H         -4.9704923700       -1.0884947057       -1.9513353123
 H         -5.7482148830       -0.0138840600       -1.1320271747
 O          3.3768351313       -4.1994179196       -3.8299320139
 H          3.2039415461       -4.3838878653       -4.7765015518
 H          4.3307341259       -4.1119367717       -3.7148614731
 O         -1.4564963300       -1.7798240969       -3.0735283947
 H         -1.6380731410       -2.6489024738       -2.6625856264
 H         -1.7666655654       -1.8743736072       -3.9959417066
 O          3.8682463315       -4.8342565137        1.7795498522
 H          3.5682048406       -5.7567918853        1.6941654010
 H          4.7925142516       -4.8413421677        1.4999121190
 O         -9.2561432002        0.1209150076       -3.2782344011
 H         -9.1705112912       -0.6481775498       -3.8890229199
 H        -10.1377979556        0.1030350557       -2.8905034043
 O          7.7726874277       -0.8094010810       -1.8512587383
 H          8.2034528734       -0.1560201601       -1.2716789088
 H          7.8031036676       -0.4322627290       -2.7489968919
 O          0.4027827256       -5.0111953492        0.4905671176
 H          0.1478009071       -5.3804241844       -0.3885015314
 H          1.3612347204       -4.8733304165        0.4170254966
 O          5.3986390089       -6.8619407899        3.2315536757
 H          5.8886824511       -6.4427393816        2.5027668471
 H          4.7198676449       -7.3778999353        2.7724305110
 O          0.5941044803        3.6452106709       -5.7641617006
 H         -0.1203827789        2.9964637718       -5.7455592288
 H          0.1829117115        4.4490582181       -5.3780073482
 O         -3.0790244414       -2.2680948811       -0.3062574070
 H         -3.5650304625       -1.5039184806       -0.6463202172
 H         -3.2210911477       -2.2652768092        0.6587765796
 O          3.6368589169        4.6281199704        1.0078365627
 H          3.7169141359        3.7360129897        0.6139487316
 H          3.2979400113        4.4848227006        1.9053356515
 O          1.7756621765        0.5751183543        6.5502381866
 H          2.7074423287        0.8428358953        6.5677453798
 H          1.4388784613        0.8792436115        5.6803823812
 O          4.1534583878       -3.5615676416        4.1076646290
 H          3.9485636499       -4.0176181268        3.2653106857
 H          5.0071070897       -3.9102470540        4.4069619228
 O          1.4714598513       -0.9132491609        2.9678337081
 H          1.2329011350       -0.0152095111        3.2895029223
 H          2.3664483208       -1.0562975160        3.3318071797
 O         -6.3813948767       -1.4545751858        6.9992310247
 H         -6.3259526571       -2.2403922180        6.4269511381
 H         -7.1156936832       -0.9220228813        6.6750413698
 O          5.8879761588       -2.7861995039        1.5612611550
 H          6.1163955257       -1.9425823676        2.0080264126
 H          6.6046742605       -3.4023735461        1.7181408852
 O         10.4138295501        0.2436322349        1.7648874718
 H         10.8286534363        0.1647223660        0.8810104929
 H         10.3926304523        1.1762246833        1.9827018452
 O         -6.2914355533       -3.6550579602        5.3124487339
 H         -7.0897243077       -4.1401839177        5.5195204393
 H         -5.5445872179       -4.2962407981        5.4362960517
 O         -6.7332983229        1.3553574240       -1.5916200838
 H         -6.2666734526        2.2098826089       -1.5902800475
 H         -6.7908075546        1.0213522906       -2.5028487927
 O          3.1625560302       -7.4532543419        1.5886722934
 H          2.8171207760       -7.6853645249        0.7129655479
 H          2.3903837280       -7.2346675810        2.1496795885
 O         -2.3490219606       -4.8306187590       -6.3068664453
 H         -1.6692814380       -5.3349290565       -5.8202430965
 H         -2.3380676124       -5.1446480356       -7.2097370318
 O          3.0202056414        3.2721875193       -7.0670222182
 H          2.0988049191        3.5537926692       -6.9738406860
 H          3.5229151368        3.9249126895       -6.5461754358
 O          1.1070793109        5.3879233780        0.3794463314
 H          1.0190726132        6.2763407151        0.7610335280
 H          2.0337875685        5.1328226550        0.5425335191
 O         -0.5862094704        3.1088693623        3.0666593994
 H         -1.4101538726        3.0991269657        3.5833011791
 H         -0.6690439039        3.8744220788        2.4890749972
 O          5.7703524775        5.0595190938        4.4082802369
 H          5.0506991145        5.6889156219        4.1651224086
 H          6.5959633393        5.5324392738        4.2892490096
 O         -3.7452732093        5.7299000410       -0.7824805803
 H         -3.8459551659        6.3205445925       -0.0109550121
 H         -4.3369510545        4.9627911423       -0.6502399959
 O          9.1999395212       -3.5697653577        1.3506157958
 H          8.7284957733       -2.7253081064        1.1559053156
 H         10.1116104417       -3.3829585135        1.0940630878
 O          3.9938461714        5.3890771373       -5.5855121021
 H          4.1278880817        6.1576048129       -6.1387543975
 H          3.2398556105        5.6128356680       -4.9823013960
 O          7.7491149896        1.6228832451        2.1572451849
 H          6.9785974620        2.2312720239        2.1296887629
 H          8.2167872665        1.9087957415        2.9595034894
 O          4.4785588834        0.3628030312        6.3165414057
 H          4.2394049859       -0.1624799801        5.5069743128
 H          4.8731827577       -0.2774548773        6.9122942030
 O         -2.7142949624       -6.9803700588       -3.2149866731
 H         -2.8653883886       -7.1174378606       -2.2566422196
 H         -3.5954226399       -6.9970587465       -3.5972677620
 O         -7.9079868506       -5.9951542659       -2.0182678785
 H         -8.6174097141       -5.8077621459       -2.6370811018
 H         -7.9728092193       -5.2683641293       -1.3570576318
 O         -3.1717268262        0.5985779455       -4.7846116464
 H         -3.8261069528        0.3625744583       -5.4628602991
 H         -2.2888355924        0.3870504847       -5.1506015161
 O         -8.8853709391       -1.9800399246       -4.8772008564
 H         -7.9826886106       -2.2788595524       -5.0692618553
 H         -9.2346285586       -2.6421599270       -4.2465142124
 O         -1.8913266789        4.5364540871       -2.2722590603
 H         -2.4044814202        5.1424410627       -1.7147660218
 H         -2.5437285925        3.8712580334       -2.5688664957
 O         -3.2875321967       -7.2142795803       -0.5920451300
 H         -2.8930794482       -6.4192155535       -0.1781261856
 H         -4.2321092322       -7.1439655779       -0.3995495689
 O         -8.6868595041       -3.4948896296        2.5343828488
 H         -7.9549299751       -2.8496622828        2.6121379882
 H         -9.2915706703       -3.2436419118        3.2398037963
 O          8.7738076751       -3.3010081400        4.0113890057
 H          8.8589157022       -3.5350927424        3.0664422535
 H          9.5503135014       -2.7249571062        4.1670439664
 O          6.5203194445       -6.0083608958       -2.6767811822
 H          6.3378151735       -5.1298327637       -3.0526585116
 H          7.2511730000       -5.8749106960       -2.0576096267
 O         11.4512557062       -2.5872162990       -0.0748972974
 H         12.3226477806       -2.9811345323       -0.1070439562
 H         11.5704142485       -1.6289570786       -0.1737435293
 O         10.2691313760       -0.1649934551       -3.0295520390
 H         10.0306639897        0.7517237142       -3.2961330891
 H         10.7381476783       -0.5567420954       -3.7643036860
 O         -3.6505402187       -2.1757578237        2.3416474916
 H         -4.1145426836       -3.0409396119        2.3612120253
 H         -4.3069737158       -1.4860268058        2.1110211584
 O          3.4639933861       -6.1473586938        5.0708669825
 H          3.6601403796       -6.7290081486        5.8034026277
 H          4.1846671519       -6.2638517984        4.4208184152
 O         -5.4114576656       -6.1689671416       -3.1025832727
 H         -6.3682069619       -6.1908136325       -2.9214994884
 H         -5.0399890766       -5.7571229414       -2.3060532138
 O         -9.1211224411        2.0711326003       -5.1701196074
 H         -9.2455817940        1.4254210116       -4.4467650110
 H         -8.8942926145        2.8944291566       -4.7218567750
 O         -5.0727921849       -0.4194752847       -6.4778356947
 H         -4.5258243543       -0.5816491718       -7.2543767381
 H         -5.9249989379       -0.0513769868       -6.7542459420
 O          5.4436400081        1.4952153412       -7.1602000185
 H          4.6916520177        1.9347693847       -7.5679978576
 H          5.3836886766        0.5378368898       -7.3515626584
 O          8.3445404615       -4.9547117681       -0.8051631902
 H          8.6594747398       -4.2739577780       -1.4325339590
 H          8.7503941890       -4.6705609238        0.0337907989
 O         -8.6289871927        2.3453806255        3.7758043651
 H         -9.0148637770        2.3680166342        2.8830835418
 H         -8.3535890284        3.2473031884        3.9515528366
 O          0.2087488103        6.0879713289        3.7919794051
 H         -0.2871211964        6.0206245068        4.6199414886
 H         -0.4423393967        5.8756317664        3.0820124676
 O         -1.3578164992        0.9890805325        5.2982328053
 H         -2.0951218457        1.0272200824        4.6584956862
 H         -0.8401354044        0.2019804321        5.0354837738
 O         -5.0412297700        0.0023384668        1.6667191732
 H         -4.4493903441        0.3845704612        2.3449657614
 H         -4.7900487153        0.4297391669        0.8288970043
 O         -4.7713772262       -4.2246988773       -1.2990840151
 H         -4.2612794406       -3.5045712668       -0.8825112152
 H         -5.2023191065       -4.7107056397       -0.5793860882
 O          8.1702499706       -1.2088470452        1.0071148102
 H          8.8746681576       -0.6315771095        1.3299706331
 H          7.4608620692       -0.6313261791        0.6770579896
 O         -2.6595589900       -0.6259036412       -7.7837264612
 H         -1.7857753750       -0.9283245466       -8.0451191962
 H         -2.6236807228        0.3565766677       -7.7544193346
 O         -7.9588006766        5.0519488053        2.3696187470
 H         -7.5322902088        4.2582907424        1.9694929828
 H         -7.7104307356        5.7792806897        1.7815275574
 O         -2.9641250786        3.4030071279        4.3174601862
 H         -3.1582534365        3.1728650222        5.2570971796
 H         -3.0378884702        4.3628699714        4.2277801957
 O         -4.7619774491        4.8806384542        1.7350677533
 H         -5.1021450550        4.8682853003        2.6356353701
 H         -4.0841585445        4.1711698749        1.6779437606
 O         -0.3263349788       -2.1851306651        7.3599111870
 H          0.6000031008       -2.1866842787        7.6202416061
 H         -0.7137591950       -1.3297018272        7.6371878085
 O          2.6360313189       -1.6896800951       -4.3668156289
 H          2.7492365649       -2.6069735521       -4.0336296036
 H          2.5123094407       -1.7393027571       -5.3327647393
 O         -4.4195047673       -5.4400204866        5.7339390014
 H         -3.7558517131       -4.9847503112        6.2728260725
 H         -3.9337795975       -5.8867467156        5.0271581265
 O         -2.9630340959        2.9467947588        1.5445886019
 H         -2.1457268021        3.2510717430        1.1031425172
 H         -3.4266672606        2.4149629949        0.8594200753
 O          6.6931173013        3.1470612447       -0.0715838487
 H          6.2077939827        3.4276572592        0.7240695801
 H          6.4381464217        3.7388787242       -0.8120481159
 O         -5.0575251371        3.4565018521       -6.7036454410
 H         -5.4437334045        3.1584628254       -5.8450466847
 H         -5.7943361560        3.6149094510       -7.2922099424
 O          2.6905351699        7.0854032581       -1.4379995082
 H          2.7813977587        7.4641618163       -2.3149969225
 H          2.9744223260        6.1523438865       -1.5424554660
 O         -0.1072600125        7.1186025616       -1.7627433498
 H         -0.1884242967        6.1981366653       -2.0504690358
 H          0.8355087047        7.2226046745       -1.5525074357
 O         -6.0209301619        2.7793914456       -4.3438255914
 H         -6.8237161374        3.1901087887       -3.9622150635
 H         -6.1680637747        1.8072777920       -4.3090980342
 O          0.8808834016        4.5285623877       -2.2412432160
 H          1.0071453169        4.6891737937       -1.2943477718
 H          0.4046097482        3.6906225666       -2.3521062132
 O         -5.6449640341        3.7624198463       -0.9383200746
 H         -6.2166303454        4.4331079386       -1.3574202258
 H         -6.0483600881        3.5445178311       -0.0670920801
 O         -0.7663889955        5.6370487224       -4.5636433859
 H         -1.0213557229        5.2327868280       -3.7097627688
 H         -1.6010500699        5.7684723752       -5.0260866926
 O         -3.4568917164        5.1909127057       -5.1953230411
 H         -3.9624948221        5.5804975061       -4.4606707139
 H         -4.0887386944        4.7778893057       -5.8022164679
 O          1.4159266290       -6.3148406184        3.2398174620
 H          1.4358969423       -5.4003481847        2.8839445198
 H          2.0037530364       -6.3018277629        4.0091654152
 O          4.9114056177        0.6606539585       -2.2536129144
 H          4.2164617568       -0.0181626957       -2.1637877477
 H          4.5878338338        1.4184269545       -1.7312076516
 O         10.8686378581        2.7796887008       -1.1833962983
 H         10.3842902741        3.5133827760       -0.7603274574
 H         10.6246740185        2.7989650345       -2.1215062784
 O          7.3001939242        2.2363852343       -2.5190814974
 H          7.6905484432        1.9625411894       -1.6686705511
 H          6.5950124223        1.6093091347       -2.7084201766
 O          2.5737006291        3.2291258403       -3.9775926758
 H          1.8810960047        3.3727604896       -4.6502009309
 H          3.3217044976        2.7514117156       -4.3866091587
 O          8.3250376884        2.9329919554        4.4077480517
 H          7.3993791075        2.7729942566        4.6876732120
 H          8.3005421922        3.7599423474        3.8952658393
 O          1.6434951346       -3.9077956039        5.2636741619
 H          1.9072025631       -3.1978678847        5.8859557874
 H          2.3979240536       -4.5119777279        5.2270915128
 O          6.1960738183        0.4597098633        0.1011237944
 H          5.8655566655        0.2823303121       -0.7977597845
 H          6.4104554075        1.4097339073        0.1085064616
 O         10.5581349215       -1.2921561384        4.0965103568
 H         10.5878369376       -0.8760365716        3.2218527503
 H         10.1987314870       -0.6175333898        4.6885979123
 O          2.4478035865       -2.0131380022        6.9364939127
 H          3.4116670425       -2.0967520116        6.8814576406
 H          2.2239521595       -1.0794996424        6.7435704315
 O          6.4981903327       -4.6838206995        4.9174908643
 H          7.3553419738       -4.3123129147        4.6623147078
 H          6.4222866387       -5.5436666764        4.4909432623
 O          8.7593156972        1.2713435443       -0.4261987184
 H          8.4814792964        1.4628629075        0.4850497893
 H          9.5930926619        1.7372254523       -0.6116561357
 O          8.3250700997       -2.5700497049       -4.4872043801
 H          8.2215381392       -1.5994126495       -4.5294549533
 H          8.9496638727       -2.7450073069       -3.7635801891
 O         -4.1535081519       -4.1860255089       -4.3086152084
 H         -4.6799008866       -4.9438542761       -3.9697455866
 H         -3.5910120834       -4.5147271870       -5.0238470187
 O          7.7607983953        2.3660853066       -5.8044051423
 H          7.3465398314        3.0991853621       -5.3090989198
 H          7.1238054732        2.1368462933       -6.4944255757
 O         -8.0784800932       -4.0621864787       -0.1978198476
 H         -7.2496661422       -3.5886672523        0.0454559009
 H         -8.6733538560       -3.9473151967        0.5467830425
 O          6.2800482427        5.0794921719       -1.8469171876
 H          5.3033367892        5.0695483313       -1.9324869419
 H          6.5762781568        4.7577613819       -2.7178373783
 O         -6.4541794571        6.6053124900        0.6214670582
 H         -5.9674137983        7.4212715450        0.7665712360
 H         -5.8343308435        5.9091263139        0.9374700107
 O         -6.4817196353        0.2042578327       -4.0058539638
 H         -6.9750604119        0.0144256639       -4.8211748455
 H         -5.7810035728       -0.4687515559       -3.9172346074
 O         -6.8123405632        2.9040064948        1.2683437649
 H         -6.1738914068        2.7763213861        2.0008647918
 H         -7.2305618795        2.0307627356        1.1310691578
 O          2.4479215607        3.4056168413        5.7446574138
 H          1.4741898572        3.3121636140        5.8645365741
 H          2.7403438405        4.0508822452        6.3858697595
 O        -11.0796125332        0.3556024158       -1.1676867542
 H        -11.5795004631        0.7089724042       -0.4221590402
 H        -10.8534520296       -0.5675486103       -0.9019028298
 O         -2.5189103633       -2.1389132089       -5.4983890866
 H         -2.3504911561       -3.0370222135       -5.8068006503
 H         -2.6087975987       -1.5927991159       -6.2971532118
 O         -9.7718823545        3.0448440893        1.3871346379
 H         -9.5025884853        3.9538751948        1.5634105103
 H         -9.4511719282        2.8187212590        0.4788165133
 O         -6.7488289987       -2.9346520167       -2.5636727293
 H         -6.4903208017       -2.7738036504       -3.4824615688
 H         -6.0180327269       -3.4236003929       -2.1295495523
 O          6.1943218000       -0.4714542331        2.9132377785
 H          6.7570205792        0.2438554241        2.5589771971
 H          6.6164726648       -0.7588693315        3.7485674115
 O         -3.8549476464        2.6730532200        6.6761071007
 H         -3.8618609552        1.7032756848        6.6866328708
 H         -4.7819012319        2.9427778310        6.5723593470
 O         -7.7317112823        0.2070542593       -6.4477678567
 H         -8.2372682081        0.9950182527       -6.1496186986
 H         -8.3444508234       -0.5320753747       -6.3838612617
 O         -2.7559851667        2.0415067358       -7.5424483311
 H         -2.2050029451        2.3314631472       -6.7978436157
 H         -3.6045606558        2.4885864967       -7.4094462239
 O          6.0152423663       -3.4051156870       -3.4131576103
 H          5.9054994939       -3.0638945642       -2.4951429020
 H          6.9152888069       -3.1658449325       -3.7275754136
 O          0.2312816955       -3.4933661105       -4.7653394196
 H          0.5392701642       -3.2311256917       -3.8727227508
 H         -0.1733930606       -4.3702479231       -4.6551941463
 O         -0.9109617632       -4.6900949669        4.8341177299
 H          0.0248111581       -4.5238064245        5.0495365013
 H         -1.4374469154       -4.3669481698        5.5949831065
 O          5.5938261206       -2.2267159140       -1.0691446955
 H          6.3575658489       -1.6497803072       -1.2550968138
 H          5.7138383535       -2.5243811452       -0.1471236768
 O         -5.3445942106        2.5708558623        3.4494777260
 H         -5.4377240923        1.6122914485        3.6455750284
 H         -4.4068306009        2.8058794127        3.6201136791
 O          5.1456465675       -1.0558932881       -4.4939782991
 H          4.1690923754       -1.0892225295       -4.3673353654
 H          5.4607278436       -1.9106630322       -4.1429861192
 O          9.1906939413        0.6534896418        5.6197384011
 H          9.4800344849        0.8800656339        6.5034674439
 H          8.9622272845        1.4925091067        5.1786877786
 O          1.9488257916        6.1835502428       -4.0836517097
 H          1.1148741517        6.4109785846       -4.5072346757
 H          1.6795162323        5.5172351682       -3.4174923754
 O          7.0529492539       -3.2271814546       -6.8647299928
 H          6.9152375949       -4.1737203870       -6.8939581250
 H          7.5959480657       -3.0476169561       -6.0809429498
 O          5.7787607003        2.3227636802        5.0799040072
 H          5.3944139773        1.7033145534        5.7287179145
 H          5.4384715942        3.2080009433        5.2489867135
 O          2.6083823843       -1.4466599077       -7.0781033469
 H          3.5570129530       -1.4545299953       -7.3103052789
 H          2.4451006394       -0.5156357691       -6.7849276827
 O          9.0305470266        4.3908517707        0.0133932694
 H          8.8149724305        5.1543903688       -0.5242542377
 H          8.2146731723        3.8248532226       -0.0055172076
 O        -11.8004444374        1.3304289946        1.4032656636
 H        -12.5926529324        1.6694612359        1.8176759405
 H        -11.1344066450        2.0509275728        1.4205224486
 O         -9.9469384687       -0.6199407690        2.0617216065
 H        -10.6236998368        0.0487341988        1.8747891574
 H         -9.0846936970       -0.2323190747        1.7820950391
 O         -4.6144661343        6.5959891220       -3.1035651346
 H         -4.2850465515        7.4843451509       -3.2377703399
 H         -4.2216187116        6.2790674014       -2.2478185517
 O         -0.5814605819        0.4523942357       -5.6458013640
 H         -0.5064963241       -0.3488784284       -6.2029373655
 H         -0.1606332623        0.2034618458       -4.7940443203
 O         -4.0853363403        1.5799363114       -0.3322473605
 H         -3.5063172217        1.0810894633       -0.9450848514
 H         -4.4193061749        2.3261197849       -0.8507200816
 O          3.8371140594        7.7133194458        1.0126648656
 H          4.7297690200        7.3415726280        0.9392682132
 H          3.4202049247        7.5507751792        0.1479390734
 O         -6.0079810186        5.5193921299        4.2520815470
 H         -6.1705460219        4.9004912078        4.9762924179
 H         -6.7941672884        5.4722830848        3.6738987057
 O          7.6029203143        0.0466991095       -4.4218770997
 H          6.6635152635       -0.1819516569       -4.5074091836
 H          7.7359347399        0.8815513067       -4.9169157817
 O          4.7850917551        1.9377614488       -4.5980807269
 H          4.8298495614        1.1859013409       -3.9849119992
 H          5.0093344850        1.6467234459       -5.5015322966
 O          6.2194657536        4.1837262657       -4.4203013282
 H          5.5716051172        4.7558405432       -4.8578222637
 H          5.7241970542        3.3519885935       -4.2723818469
 O         -9.3957100621       -3.6025277133       -2.7864037484
 H         -9.8925677776       -3.3163438833       -2.0132786643
 H         -8.4550629189       -3.4791600040       -2.5478273901
 O         -6.4238186894        3.2041185136        5.7731389703
 H         -6.1064926986        2.9339243138        4.8732807727
 H         -7.1161310321        2.5879473565        6.0161598760
 O        -10.2550234534       -2.0416401179       -0.3102920176
 H         -9.3362183112       -1.8170681621       -0.5915984751
 H        -10.2673046662       -1.8467895674        0.6378138586
 O         -7.9850615560       -1.0357322775       -1.1911340449
 H         -8.3527542042       -0.5202187732       -1.9342839986
 H         -7.4265453008       -1.7288922935       -1.6016406145
 O          9.6509472599        2.3617125607       -3.6785865811
 H          8.7357270993        2.3773761059       -3.2978558247
 H          9.5164783743        2.5026942800       -4.6195516375
 O         -2.7366156968       -6.2524087199        3.6242934258
 H         -2.0456940354       -5.7717966742        4.1165913733
 H         -2.2359211386       -6.6777079308        2.9018848039
 O          1.8488061262       -6.4516855780       -3.2577084026
 H          2.4557699248       -5.7008489368       -3.3490932598
 H          1.1085611457       -6.1300741930       -2.7057956386
 O         -1.2668420366        7.7248808635        0.5137438193
 H         -0.4886558468        8.0481512332        0.9895530902
 H         -0.9404658246        7.5288935625       -0.3992679585
 O         -3.8861653569        7.5810498463        1.2377199746
 H         -3.8170364952        7.1659864288        2.1069634301
 H         -2.9939278006        7.8841013601        1.0033227341
 O          2.1706836483        0.9125716662       -6.0170996575
 H          2.5372853798        1.7239718041       -6.4094220221
 H          1.2081215552        1.0161774173       -5.9882689722
 O         -9.8275241476       -1.7124570076        4.4342151490
 H         -9.8825153823       -1.2826886171        3.5398756187
 H        -10.7004363444       -1.6529259350        4.8208092427
 O         -2.1735910777       -4.2129859453       -2.2790509430
 H         -2.9392176182       -4.2941802188       -2.8712386521
 H         -2.4993423160       -4.3075439012       -1.3671100342
 O         -6.1929653188       -2.6565142306       -5.3006074708
 H         -5.7560801271       -1.8939178962       -5.7193383159
 H         -5.4805286437       -3.2939578205       -5.1195816163
 O          5.2664151597       -1.1904468144       -7.1393349001
 H          5.9236274847       -1.8810381822       -7.3188466679
 H          5.2522401851       -1.1295548368       -6.1536223075
 O         -5.9001528441       -6.3505558433        0.0232380749
 H         -6.3351248492       -6.1143541844        0.8567044083
 H         -6.6035662570       -6.5259760570       -0.6112556193
 O         -6.9982057463        5.8764606929       -1.9215146286
 H         -6.2786519944        6.2401523472       -2.4638746679
 H         -6.9218482456        6.2822694239       -1.0352288243
 O         -2.5647095918       -4.8551516276        0.4414900894
 H         -1.8791284760       -4.5357523046        1.0544384290
 H         -3.3881725536       -4.7778894501        0.9540684428
 O          5.9840126285        5.9365194834        0.8589203664
 H          6.2142170986        5.8367898808       -0.0733276231
 H          5.1633159034        5.4093845911        0.9843185835
 O         -8.2302472457        3.7802823958       -3.1752021017
 H         -8.6545737076        3.2823137938       -2.4479719070
 H         -7.9775074010        4.6364631995       -2.8015139658
 O          4.5344429575       -6.3503792007       -0.9758289265
 H          4.0001441737       -7.1458771371       -1.0513569922
 H          5.1836012365       -6.3362439457       -1.7165747138
 O         -4.1526539149       -0.0910515877        6.5189473931
 H         -4.8967809877       -0.5982853829        6.9048260383
 H         -3.6438166856       -0.7301940923        5.9693482490
 O          0.6615346820       -0.2487743199       -3.4042024880
 H         -0.0144116990       -0.9084809097       -3.1443610954
 H          1.4153485644       -0.7699540174       -3.7538621415
 O         -2.5007664444       -3.7089024390        6.7338357110
 H         -2.8427407737       -3.0208958858        6.1250122370
 H         -1.7926594821       -3.2738934012        7.2331373400
 O          9.4513528909       -2.8546659085       -2.0495518030
 H         10.2038357324       -2.7764603516       -1.4475325803
 H          8.8715957221       -2.0784145572       -1.8631526873
 O         -0.4325807037       -2.5911852951       -0.1546110297
 H         -0.1789982075       -3.4617306501        0.2200757074
 H         -1.3884480299       -2.6184857458       -0.3412286654
