  86
       -142.08726785
 H          2.5286215786       -1.7086581767       -0.4372625362
 C          2.2640739095       -0.6680236124       -0.6367985011
 H          3.1802534722       -0.0947198304       -0.7817617334
 C          1.4711054136       -0.0966745528        0.5463668478
 H          1.3203690367        0.9759295501        0.4060544884
 H          2.0561004762       -0.2534378006        1.4513138921
 N          0.1633043913       -0.7155447380        0.7297490686
 H         -0.4164322781       -0.5601211248       -0.0887336567
 H          0.2766418112       -1.7229085140        0.8377393238
 O          1.5166333614       -0.5828050181       -1.8439005024
 H          0.9281166128       -1.3877177549       -1.9108878009
 O         -2.4162419773        1.9711719356       -0.2381981260
 H         -2.1327194707        2.3546047859        0.6121948300
 H         -1.5981544209        1.7676506020       -0.7326912504
 O          5.0450160287        0.6572306951        2.5975542308
 H          4.4657870768       -0.0789195020        2.9536588013
 H          5.8134512738        0.6820482319        3.1682799796
 O         -4.1737269047        1.8224246446       -2.3110929154
 H         -3.6290118766        1.9601799243       -1.5113207821
 H         -4.4927431162        2.6830747076       -2.5822085287
 O          0.7494400258        3.9654531532        1.6009205363
 H          0.8770852385        3.9092948044        0.6375601933
 H          1.5124655386        3.5263594323        2.0042213298
 O          2.7584772938       -3.1287757440        1.8987876646
 H          3.0403663955       -3.9833637917        2.2262144255
 H          1.9384813470       -3.2969429590        1.3939618697
 O         -2.5172459508       -1.7774359297       -1.4403228352
 H         -3.3319823475       -2.2397000574       -1.7497796607
 H         -2.3811046896       -1.0716732607       -2.1163621009
 O          1.8551181031       -0.1635678242       -4.5361745061
 H          2.6227138098       -0.6376369885       -4.8582557443
 H          1.8848710422       -0.2133702103       -3.5649806818
 O         -0.4524179653       -1.6903436621       -4.5902871566
 H         -1.1758175880       -1.0908313302       -4.3636145512
 H          0.3210797539       -1.1188633029       -4.7425286939
 O         -0.0522522281       -2.6797743508       -2.1528144728
 H         -0.9474875805       -2.4927119152       -1.8092736889
 H         -0.1427301658       -2.5450707564       -3.1241498984
 O          5.1934493566        0.7562555765       -0.1255745974
 H          6.1206149751        0.8592559910       -0.3428831727
 H          5.1439430368        0.6351664849        0.8433898470
 O          0.5480393933       -3.6483035663        0.4359456701
 H         -0.3885992149       -3.7506782666        0.7205162288
 H          0.5177768047       -3.5854401514       -0.5275327717
 O          3.4566914681       -1.1274545460        3.6130122136
 H          3.1880650594       -1.8332979825        2.9951447318
 H          2.6546858887       -0.6209315102        3.8304522381
 O          1.2796476060        3.6326100035       -1.1121658489
 H          2.1777812178        3.3183222617       -0.8217856576
 H          1.4308437212        4.4065639379       -1.6549288382
 O         -3.7080934447       -0.3043645428        0.4917991573
 H         -3.2443134667       -0.8979422618       -0.1347237543
 H         -3.2927615904        0.5665393250        0.3545320824
 O         -0.2401978634        1.4748358589       -1.7848807787
 H          0.4341787050        0.7622281699       -1.8017398946
 H          0.2613892543        2.3008886165       -1.6739133933
 O         -2.9068924719       -1.6768940622        2.7388260559
 H         -2.1944751969       -1.0889950286        3.0344346332
 H         -3.3886465716       -1.1671908349        2.0646899056
 O         -2.1435955451        0.1735712716       -3.2378586307
 H         -1.4319810941        0.7242166079       -2.8648555034
 H         -2.9553184653        0.6963925070       -3.1497357373
 O         -1.5224870726        2.8180876523        2.1729750417
 H         -2.0175747672        3.4212060204        2.7271485221
 H         -0.6490072782        3.2594260660        1.9841163886
 O         -5.7858573553       -0.2716972851       -1.2701927553
 H         -5.4108641883        0.4307047560       -1.8192681475
 H         -5.2303579856       -0.2789080524       -0.4660325547
 O         -2.0546606747       -3.4920064586        0.9337317997
 H         -2.3284364255       -3.0071607921        0.1481577403
 H         -2.3508284556       -2.9502870657        1.6977017630
 O          2.8507076063        2.3515314053        2.5921392937
 H          3.7116156280        1.9032660572        2.6428484232
 H          2.2624440396        1.7905369629        3.1301895366
 O         -0.8963035321        0.2427906755        2.9484356835
 H         -1.2175338057        1.1305744265        2.7181606702
 H         -0.5307969357       -0.1403032272        2.0946376045
 O         -4.9172833342       -2.6540746913       -2.1090689014
 H         -5.3599431334       -1.7979195906       -1.8932838086
 H         -5.3528951764       -3.3228191755       -1.5796550455
 O          3.5531190206        2.9333862885       -0.0575315911
 H          3.3171130249        2.8244981070        0.8774838662
 H          4.1165568405        2.1666175783       -0.2655898938
 O          1.3807043503        0.6198188845        4.1460426526
 H          0.4939811473        0.4369800662        3.7229377688
 H          1.2113198132        0.7725695819        5.0756400745
