  116
       -193.00643980
 H         -2.6880362875        1.0338434085        2.4128419716
 C         -1.9771159858        0.8968230424        1.5908678419
 H         -1.9493065662        1.8131160882        0.9972590599
 C         -2.4039958161       -0.2770040721        0.7111753057
 H         -2.6334093789       -1.1405937710        1.3438723162
 H         -1.5775945146       -0.5460471216        0.0505645651
 N         -3.5328606838        0.1071097483       -0.1284730894
 H         -3.8505905701       -0.7088102934       -0.6484750842
 H         -4.2982663756        0.4181342688        0.4578114142
 O         -0.6707034902        0.7023681201        2.1048750132
 H         -0.6794813901       -0.1514761009        2.6276977691
 O         -2.8141726615        1.8457702522       -1.9319354912
 H         -3.0700594103        1.1874357838       -1.2013678941
 H         -3.5889762278        1.8576282394       -2.5141967060
 O         -0.9131870497        4.5874074488        0.6027131165
 H         -1.8728963868        4.4252421302        0.6047039457
 H         -0.5598690238        4.2014637072        1.4178366465
 O          0.8453939782        0.7267102510       -0.2332487612
 H          0.3829862094        1.5198202539       -0.5648818119
 H          0.4290275613        0.5280500091        0.6191571560
 O         -5.2371427667        1.3550282141       -3.0925328519
 H         -5.7599896187        1.1771879835       -2.2683719687
 H         -5.8537636697        1.7261185190       -3.7234612658
 O          0.2765774658        3.1355574718        2.6903823579
 H         -0.0604847082        2.2249590272        2.5313564518
 H          0.3371255544        3.2455161365        3.6393479942
 O         -6.6212570547        0.9237551621       -0.8858156061
 H         -6.5484783740        0.0213518813       -0.5279459865
 H         -6.3233567638        1.5150111145       -0.1742316641
 O          5.3938219284       -2.3791842064       -0.5842241814
 H          6.0466351193       -1.8220205985       -0.0996457168
 H          5.4642738462       -2.1309564029       -1.5282030340
 O          4.8170529979       -1.4481768950       -3.0634307525
 H          4.5651161790       -0.5359652298       -2.8735683933
 H          3.9846589180       -1.9457893559       -3.1231169344
 O         -1.5583461074       -0.3920824030       -2.9852460594
 H         -0.6037791055       -0.2674145690       -3.0988790321
 H         -1.9052256648        0.4528323573       -2.6426834168
 O          6.0784059745        1.7840674528       -0.6438387555
 H          6.7568581862        2.3452821571       -1.0180240746
 H          5.7965910686        2.2100791033        0.2168576919
 O          6.8202158187       -0.5456337745        0.6763001601
 H          6.6718468156        0.2348142240        0.1172259574
 H          6.3874107345       -0.3382855042        1.5210613455
 O          1.8259085518       -1.9871107187        3.4777964263
 H          2.1624012250       -1.1522232186        3.1146477546
 H          1.8692504220       -2.6168007529        2.7394339904
 O         -0.3432805275        2.8995622542       -1.3294360095
 H         -0.5541687761        3.5888124950       -0.6484624312
 H         -1.1951738489        2.6116706759       -1.6930042504
 O         -5.4393580824       -0.0732382567        2.4743073349
 H         -4.7364938806       -0.4958243031        2.9970039934
 H         -5.7323404554       -0.7245141574        1.8173987350
 O         -1.6646400669       -2.6060868581       -1.3346097700
 H         -1.0460509930       -3.2889489102       -1.6608398254
 H         -1.5953955066       -1.8533762336       -1.9513435990
 O          3.5807300366       -4.4609584638       -0.5903958350
 H          3.3464283182       -4.3919828788       -1.5201312804
 H          4.3676886011       -3.9028296479       -0.4757443718
 O         -0.7979510951       -1.6058797348        3.3260567291
 H         -0.9358957536       -2.2502218203        2.5881536799
 H          0.1316117042       -1.7667532418        3.6076079593
 O         -4.1666797809       -1.1410605563       -3.7051137710
 H         -3.2108379672       -0.9924486235       -3.6740730055
 H         -4.5729481514       -0.2702068403       -3.5605290926
 O         -3.4676757907       -1.3954463613        3.8916720864
 H         -2.4989269362       -1.4069266450        3.7876934391
 H         -3.7055660097       -2.2592232399        4.2304047158
 O          2.2845235824        3.2558485539       -1.4360466059
 H          1.3183061021        3.1327942515       -1.5426677870
 H          2.4672190812        4.1763952248       -1.6255734679
 O          2.5902828833        2.7425816883        1.2863218458
 H          1.7890090925        3.0473556368        1.7466141993
 H          2.4330620449        2.8583198693        0.3328314775
 O          5.3159928059        0.2630593254        2.8698437721
 H          4.3676036469        0.1594571854        2.5944375034
 H          5.3966714870       -0.1453056593        3.7314026912
 O         -0.9552319843       -3.2626036820        1.2679634822
 H         -1.3094683596       -3.0074710424        0.4005625538
 H          0.0018692115       -3.3745112419        1.1389479647
 O          5.3111756611        2.7532047105        1.6513547764
 H          4.3471198557        2.8719424220        1.5936824371
 H          5.4453445736        1.9799444836        2.2238691560
 O          2.2947668261       -2.5028840150       -2.4833611116
 H          2.5393263177       -2.1531342183       -1.6001592728
 H          1.7529821993       -1.7847438905       -2.8574391563
 O          2.8218062496        0.1550661684        2.0344691782
 H          2.8580223816       -0.3176170253        1.1754040675
 H          2.6483491235        1.0880845272        1.7947319603
 O          1.7664248529       -3.1840650325        0.9427325405
 H          1.9885168810       -2.3245919617        0.5577729310
 H          2.3959188737       -3.8088503945        0.5309861850
 O          0.3554715790       -4.3172303905       -1.8764530703
 H          0.6600627285       -4.7444828461       -1.0730673772
 H          1.0785559129       -3.7294844711       -2.1713909245
 O         -4.3837869421       -2.4788857293       -1.4005438205
 H         -3.4519349132       -2.7404659127       -1.2854968633
 H         -4.4293545646       -2.1026706466       -2.3079494200
 O         -3.4193905145        3.6065088020        0.1886343093
 H         -3.2825677411        3.1295431065       -0.6455688814
 H         -4.1889356441        3.1969694888        0.6084390191
 O          3.7988967144        0.9835176772       -1.8574636989
 H          3.2354974326        1.7632049144       -1.7256492745
 H          4.6615942950        1.2349890555       -1.4731692808
 O         -6.2378344287       -1.5864341137        0.2552208854
 H         -6.9747130769       -2.1966054582        0.2209580913
 H         -5.5371169510       -1.9745451046       -0.3228821987
 O         -5.6398970718        2.2955224132        1.3261919028
 H         -5.5356546589        1.4682380289        1.8552135723
 H         -6.2398246195        2.8553901463        1.8196973692
 O          3.1252032948       -1.1131262146       -0.3050936923
 H          4.0009370909       -1.5842914088       -0.2841862230
 H          3.2723752851       -0.3053631283       -0.8448644922
 O          1.1545875922       -0.0811567251       -2.7552251303
 H          1.0655729098        0.0969764773       -1.7908736205
 H          1.8586568360        0.4960794218       -3.0571156576
