  189
       -320.74225865
 O          1.9916552344       -3.3725760635       -3.7368163131
 H          2.8953254745       -3.1697107986       -3.4601471924
 H          1.6438205913       -3.9570173404       -3.0422230199
 O         -3.9833816044       -1.2426467929       -1.4942409715
 H         -3.7675343247       -2.0627595496       -1.9887479640
 H         -4.1496279360       -0.5655988495       -2.1744279983
 O          7.3952734620        0.8921602271       -3.0142712844
 H          8.0255115296        1.3263233589       -2.4388700796
 H          7.1395893972        0.0586119250       -2.5756327077
 O         -3.6869208372       -3.0497143321        2.9228125425
 H         -3.5619861598       -2.2153895759        3.3996217996
 H         -4.6261753353       -3.0558873268        2.6734815468
 O          3.9068964366       -0.3050400910       -4.7960757445
 H          2.9504373436       -0.4244663456       -4.8819086108
 H          4.2368575316       -1.0765764953       -4.3222780413
 O          3.3293179770       -3.4826879136       -0.2063085974
 H          3.6035988893       -2.9998499353       -1.0093049214
 H          2.5606529423       -3.0315507383        0.1836542785
 O         -0.5374993423       -5.0259555744        0.5236719945
 H         -1.3886681101       -4.5345075068        0.4311114231
 H         -0.7467103500       -5.8437571385        0.9736372839
 O         -1.2907423209       -1.7294754467        2.0495969517
 H         -1.7336919780       -2.4624082738        2.4835539959
 H         -2.0023001663       -1.1937780269        1.6407984960
 O          7.1981179124        0.5448646973        1.7466846139
 H          6.8408506708        0.4986283344        2.6518399141
 H          7.4785071763       -0.3602945723        1.5168399416
 O         -3.6229153577       -3.3720966945       -3.1033742242
 H         -3.6059847317       -2.8225556471       -3.9117500902
 H         -2.7460647132       -3.7864646573       -3.0509965001
 O          1.0107704192       -2.7407733568        1.0809544025
 H          0.1919712336       -2.2631746475        1.3228511673
 H          0.6955457951       -3.6485467571        0.9796692268
 O         -2.6489973562        2.1436584286       -0.1811105632
 H         -3.5657538741        2.4278221205       -0.3859432431
 H         -2.2851338610        2.8863736798        0.3506392031
 O          0.4568985945        1.9244730110       -4.2430888542
 H         -0.4373313968        2.0089727237       -3.8830003370
 H          0.5627549584        1.0101264198       -4.5314768118
 O         -5.8138937668       -0.2766145250        3.1351613721
 H         -4.8882201132       -0.3575263510        3.4381280756
 H         -6.0401105554       -1.1360649032        2.7405841576
 O          1.7403627528        2.5076130435        3.8899846894
 H          1.2855000835        2.7300380165        3.0549779224
 H          2.6235838869        2.8869924654        3.8402810891
 O          5.8558159268        0.4546090985        4.1329691158
 H          5.1257706705       -0.1501758072        3.8259094425
 H          6.0707414412        0.1883744881        5.0261406633
 O          4.5980722498        2.7521318674        3.2536302775
 H          5.2859806516        3.0913230144        2.6396327405
 H          5.0559492064        2.0766170561        3.7822049409
 O         -0.7393980249       -2.9275681706       -5.3869250417
 H          0.1508221256       -3.1160375519       -5.6844529726
 H         -0.8260103873       -3.3769490301       -4.5267199713
 O         -2.1005293986        4.2936880522        1.3658469813
 H         -2.5476885301        4.8738968233        0.7041360593
 H         -2.7734487562        4.0791771266        2.0326791721
 O         -3.2207785176       -0.4767629147        4.0039830822
 H         -3.3632312936        0.2564808664        4.6517099221
 H         -2.7762419387       -0.0618433916        3.2459304770
 O          1.3423580386       -4.9344940758       -1.5207358579
 H          2.1512331301       -4.6610831360       -1.0560903535
 H          0.6677298882       -5.0091668175       -0.8250372017
 O         -2.0251555746        1.7306014286       -2.7933642806
 H         -1.7281046421        0.7931005253       -2.8835188250
 H         -2.1919133892        1.8612680558       -1.8364285623
 O         -4.3279970732        0.5326207613       -3.5612832330
 H         -4.1015918595       -0.0841942116       -4.2727995896
 H         -3.5408698708        1.0986474147       -3.4133879804
 O         -0.4894932233       -0.7586115549        4.7289137938
 H         -0.1986507314       -0.6740566672        3.8017402386
 H         -1.4349910664       -0.9596303121        4.6723779201
 O          0.3445542647        3.1545066791        1.5841891278
 H          0.6642138136        3.4153665215        0.7040089101
 H         -0.4550695726        3.6957960725        1.7007052433
 O          3.8250877938       -0.9256632772        3.2151313650
 H          3.2114565282       -0.7538691797        3.9737272149
 H          3.5547782316       -0.2804918965        2.5364485021
 O         -3.8763208634        2.8586934701        2.8875354395
 H         -4.6395815799        2.4959462490        2.4158841227
 H         -3.1237895002        2.2508194922        2.7100582478
 O         -0.6742239071        1.8804860159        5.1483716143
 H         -0.5314300327        0.9106772341        5.2154260557
 H          0.1868418869        2.2660034127        4.9394702057
 O          6.4851493053       -1.2044025532       -1.4969254773
 H          5.9119191626       -0.5809731312       -0.9943948991
 H          7.0021187451       -1.6493884475       -0.8071222671
 O         -1.3234451498       -0.7515225927       -3.2515042392
 H         -1.3450988596       -1.3156571709       -2.4402582474
 H         -0.4415342941       -0.8771388865       -3.6590633072
 O         -2.8530340370       -3.6882154511        0.3936406181
 H         -3.6333874543       -4.0529333223       -0.0809089469
 H         -3.1606684588       -3.4557081645        1.2896331608
 O         -3.1345131449       -1.5230207410       -5.0266535006
 H         -2.6498465817       -1.9935384026       -5.7115525229
 H         -2.4209171459       -1.2360226400       -4.4076741824
 O         -6.2538208329       -2.7365536160        2.0247386403
 H         -7.0140792043       -3.2997860827        2.1635289600
 H         -6.2529375880       -2.4928198747        1.0581610454
 O          5.1422931072       -2.9199145208        1.7592262025
 H          4.5267600708       -3.2248546956        1.0634513864
 H          4.6371831447       -2.3188085586        2.3271663084
 O          4.9634976937        1.9603990183       -3.6761917462
 H          5.8960206348        1.6889452700       -3.5993436344
 H          4.5501738612        1.2067768768       -4.1408616017
 O          0.8546960302        4.0860969505       -1.0074435455
 H          1.3168578590        4.8967928098       -0.7885918719
 H          1.4735898192        3.5672898283       -1.5543404825
 O         -1.1436863846       -2.1582835574       -1.0521919259
 H         -0.8624414450       -1.3389060751       -0.5517299074
 H         -1.8420346109       -2.5794662979       -0.5200380659
 O         -5.1273269237        3.0293356645       -0.5893834376
 H         -5.6276047830        2.6682907707       -1.3411907355
 H         -5.5467511976        2.6771950182        0.2108358878
 O          2.4810425929        2.5635687172       -2.6263256759
 H          1.7669606260        2.4131902104       -3.2866547524
 H          3.3008597575        2.6411825161       -3.1355630543
 O          5.2473116763        2.9232235165       -1.1165442560
 H          4.4090257506        3.3145118930       -0.8011716539
 H          5.1430746788        2.7277156129       -2.0642621020
 O          3.2163205134        1.2363916889        1.6014709232
 H          3.8980828533        0.9451775145        0.9490184615
 H          3.6949211099        1.7798577493        2.2733972167
 O          5.1823066572        0.5574359300        0.0171635200
 H          5.9201577614        0.5726046702        0.6715133372
 H          5.2485984557        1.4071906736       -0.4844472870
 O          6.4629860419        3.2640646464        1.3932707706
 H          7.0006020524        2.4660929791        1.4808112268
 H          6.1888580103        3.3068096795        0.4658639599
 O         -6.3262100156       -2.0436724189       -0.4901330726
 H         -5.4551826886       -1.7189474344       -0.8121764691
 H         -6.8983877971       -1.2473238927       -0.4822003365
 O         -6.4819308568        1.7811721796       -2.6123607339
 H         -5.7439297900        1.2730919228       -3.0119274542
 H         -6.9636997232        2.1862458745       -3.3333380136
 O         -0.9863953249       -4.0895203414       -2.8969384255
 H         -0.8964701674       -3.4187541618       -2.1899986005
 H         -0.3501365474       -4.7769519826       -2.6824996409
 O         -1.5513382334        4.5294462181       -2.3729634977
 H         -1.7658572396        3.6609694595       -2.7307886499
 H         -0.7288002289        4.4145407303       -1.8696858513
 O          3.1900949838        3.7513838603        0.4396950405
 H          3.6295762022        4.2261366021        1.1472491491
 H          2.9602986715        2.8756295838        0.8025669507
 O          4.1989485323       -2.1878508209       -2.4883792672
 H          5.1283856307       -2.0075802905       -2.2487186550
 H          3.7242444156       -1.3570631601       -2.2990786182
 O          1.2107389321       -0.8538304317       -4.1260517577
 H          1.3708087258       -1.8235082582       -4.1161334925
 H          1.6844770223       -0.5216133500       -3.3369597097
 O         -1.6334540193        1.4265419536        2.6716797070
 H         -1.3236819445        1.6279821951        3.5803796589
 H         -0.9283313051        1.7588701466        2.1017007660
 O         -6.1889953046        1.7730935601        1.6520300078
 H         -6.8869980216        2.2265937769        2.1266364927
 H         -6.0049787018        0.9359919614        2.1909021309
 O         -3.4698903108        1.7645267003        5.3986286415
 H         -3.7535070556        2.3293190262        4.6580971613
 H         -2.5488953524        1.9990890397        5.5729800841
 O          0.9908943157       -0.1536877672        2.4756627731
 H          1.6544449719        0.5020276174        2.2198088197
 H          1.3290760564       -1.0247727431        2.2450992410
 O         -3.3499256159       -0.3094406618        1.0136501935
 H         -3.5774437955       -0.7486257017        0.1794763890
 H         -3.0991030027        0.5918042885        0.7645140167
 O         -5.0055922363       -4.4774457836       -0.9863292553
 H         -5.6793861529       -3.8029858556       -0.8265653966
 H         -4.6535411800       -4.2820886938       -1.8677564827
 O         -3.4555290956        5.3712255755       -0.6220754070
 H         -4.1559985175        4.7109532540       -0.7077952078
 H         -2.8173574977        5.1898549661       -1.3415507665
 O         -7.4887403163        0.3664374507       -0.4106245491
 H         -7.0389119218        0.8342833254        0.3119536060
 H         -7.2459380274        0.8293734546       -1.2253910921
 O          7.4589705699       -2.0485039109        0.9356799468
 H          8.0888997102       -2.7274161147        1.1755081192
 H          6.5694869103       -2.3795697866        1.2468947212
 O          2.2330859674       -0.0052526884        5.0936951908
 H          2.0365252971        0.8625715142        4.6996126248
 H          1.3817303664       -0.4532978224        5.1718040010
 O          2.2771033927       -0.0289492749       -1.8124103107
 H          2.4407749387        0.9198029583       -1.9994311315
 H          1.5194094070       -0.0510051316       -1.2126019560
 O         -0.1874885565        0.1999909162       -0.0332991479
 H          0.0732328477        0.0772505503        0.8984651740
 H         -0.8551609337        0.8935342950       -0.0453507726
 O          0.1587590397       -3.7707395705        3.7126709249
 H          0.7190603275       -3.5130950387        2.9723142545
 H          0.0331333583       -2.9872041647        4.2536748855
