  116
       -193.00532238
 H         -2.5318572915       -1.1607885928       -0.3476937023
 C         -2.0004070048       -0.2090124624       -0.3469714949
 H         -2.6885904082        0.5919779860       -0.0724475565
 C         -1.4224018907        0.0439117411       -1.7475391700
 H         -2.2565824263        0.1832934674       -2.4358309082
 H         -0.8537365086       -0.8294250847       -2.0685194013
 N         -0.5442474413        1.2015499000       -1.8388749258
 H         -1.0427047753        2.0499576470       -1.5842557143
 H          0.2441594484        1.0879732024       -1.2064556451
 O         -0.9865450196       -0.3090465157        0.6431153656
 H         -0.6778770434        0.6013659639        0.8634961881
 O         -0.3072724987        2.2070313545        1.2656486919
 H          0.0403917211        2.8229404160        0.5853382024
 H          0.2765704505        2.2896347333        2.0403443344
 O          3.2763439110       -2.8320556599        0.2322456936
 H          2.3415135127       -2.5688085852        0.0800567791
 H          3.7812115708       -1.9996157779        0.2475067463
 O          3.7059187358       -3.5891004970       -2.2683102655
 H          4.0893062902       -4.4618135847       -2.3465003780
 H          3.5877820079       -3.4133680263       -1.2981690984
 O         -4.8537163202       -0.0842846627       -1.9088891306
 H         -4.3290055546       -0.8476243613       -2.2688319188
 H         -5.6453947132       -0.0457995673       -2.4475665181
 O         -6.0979245707        1.2249874921        1.4922873556
 H         -5.4619731458        0.7263516185        2.0273874514
 H         -6.7167654244        0.5723072321        1.1561946312
 O          3.3770863343        0.4108520792        3.7527261279
 H          4.1732612341        0.5358222370        3.1772032631
 H          3.6634269343       -0.1089025268        4.5040699297
 O         -1.7479457901       -1.7823997363        2.8056163413
 H         -1.3069008901       -1.3245077536        3.5287503729
 H         -1.4333828227       -1.3385067425        1.9933309896
 O          1.8128510593       -3.2771419763        2.6399593362
 H          1.5689994060       -2.3427800813        2.5136368259
 H          2.4619818755       -3.4618095457        1.9498576135
 O          0.7646448440       -2.1319293530       -0.3618312139
 H          0.2786565868       -1.4018970833        0.0614265298
 H          0.1259987837       -2.8828551052       -0.3664322539
 O         -0.5184803250        0.5678043802        3.9398891100
 H         -1.4203113007        0.9360233443        3.9571933954
 H          0.0693295296        1.3246231114        4.0472452337
 O          1.3354446853       -0.5783168043        2.2842352558
 H          0.5733151761       -0.2409718347        2.7871192221
 H          2.1176893856       -0.2973271246        2.7974611876
 O         -5.3674932263       -1.4853899299        0.4258302258
 H         -4.9122709856       -1.1131231887        1.1983930259
 H         -5.1864068765       -0.8939020759       -0.3273972869
 O         -3.8699596937       -3.5351254040       -0.3055413818
 H         -4.2836757409       -4.3687483754       -0.0812368507
 H         -4.4629316882       -2.8223389445        0.0437967429
 O         -4.3922300540        2.2075058309       -0.3685978520
 H         -4.4789256656        1.4858809981       -1.0111082331
 H         -5.0867962827        2.0275713785        0.2968949545
 O          0.2331450350        1.5889579231       -4.3377047158
 H         -0.0675314671        1.3972301536       -3.3954597010
 H         -0.4801574075        1.3203724690       -4.9158424198
 O         -1.1133197167       -3.2006046535       -3.0891176608
 H         -0.2237569411       -2.8456446577       -3.2483937184
 H         -1.0548004652       -3.6953246801       -2.2610189391
 O         -1.1059524115       -4.0131242938       -0.3342718073
 H         -2.0476023111       -3.7823251003       -0.3273147955
 H         -0.9184393457       -4.2959870858        0.5955755411
 O         -0.6708466361       -4.3205398933        2.2495639438
 H          0.2626835547       -4.1030316102        2.4432005805
 H         -1.1759555209       -3.5533778384        2.5618287453
 O          2.4794639853        0.0301414368       -4.1484894280
 H          1.7396591407        0.5941612434       -4.4369464380
 H          2.0524013848       -0.7599369270       -3.7548320164
 O          0.4357141478        4.0035312587       -0.5869540219
 H         -0.4934217338        4.2204017161       -0.7334366352
 H          0.8169012679        3.9406155940       -1.4979915641
 O          2.6890472267        3.1774571477        0.9077699375
 H          2.1584648685        3.7660183633        0.3556860068
 H          3.5734900626        3.0809963938        0.4894586896
 O          1.4451250559        3.7668137824       -3.0267776604
 H          2.2055926532        3.1867027049       -2.8173029176
 H          0.9183632454        3.2463282527       -3.6484507519
 O          3.1385415156        1.8228338475       -2.2878986628
 H          3.0344053689        1.2058671052       -3.0428170756
 H          2.5916111730        1.4446164446       -1.5868776882
 O          1.8946867790        0.7639864997        0.0308844371
 H          1.6037976113        0.2033619694        0.7822649683
 H          2.1130677284        1.6346286763        0.4311119251
 O         -3.0127602723        1.7147251512        3.9506181245
 H         -2.9568058054        2.3241531869        3.1587513043
 H         -3.4086901044        2.2218798499        4.6586334544
 O          5.4343689582        0.6696892476        2.1267977102
 H          5.6327027928        1.5517273202        1.8005217346
 H          5.1740882173        0.1504973698        1.3454862652
 O         -2.7636592214        3.1669368302        1.8184646952
 H         -1.8608871984        2.8864758140        1.5602488810
 H         -3.3500947553        2.8975411809        1.0999150773
 O          4.7201215949       -1.0418707067       -2.7013038753
 H          4.4736109276       -1.9812211841       -2.6916378197
 H          4.1512964754       -0.6212652751       -3.3586648757
 O         -3.6476053489       -2.2564937511       -2.7553940109
 H         -3.7908484147       -2.8408541564       -1.9925791215
 H         -2.7436279484       -2.4709132690       -3.0513666911
 O          4.9503419743        2.4356950429       -0.3363536633
 H          4.6691350049        2.6259716105       -1.2410454547
 H          4.9115893746        1.4625710152       -0.2922043436
 O          1.5584722907        2.4552836351        3.2944742872
 H          2.1922918892        1.7869923807        3.6000106728
 H          2.0473447273        2.9590221840        2.6249863402
 O          4.3397477044       -0.3066956230       -0.1861286222
 H          4.5539522426       -0.5333255819       -1.1242968417
 H          3.4138093531        0.0275027949       -0.1850681302
 O          1.4480358583       -2.1446265715       -2.9312115967
 H          2.1853009251       -2.7739633202       -2.9188044397
 H          1.2257724857       -2.0081997615       -1.9824512150
 O         -2.2721864351        3.6978915132       -1.3570502267
 H         -2.6048817187        4.3255707638       -1.9985932926
 H         -3.0484116042        3.2450046591       -0.9873710478
 O         -4.0966674093       -0.4069420785        2.6376680812
 H         -3.7744916286        0.3378722919        3.1765591953
 H         -3.3840680232       -1.0707519756        2.7091777875
