  461
       -778.76830574
 H          0.6213001516       -1.5302744912        0.6570811095
 C         -0.1333737807       -0.7728197746        0.4523713151
 H         -0.6758819993       -1.0501080025       -0.4519960803
 C          0.5401513620        0.5918411047        0.2618220892
 H          1.1989157580        0.7731193351        1.1094529891
 H         -0.2256706253        1.3615987270        0.2394782045
 N          1.3139408806        0.6947238231       -0.9659366870
 H          1.8669710211       -0.1426694548       -1.0861426269
 H          0.6863210943        0.7771976072       -1.7566406416
 O         -1.0263265572       -0.7652014766        1.5504540816
 H         -1.8335105178       -0.3087281798        1.2620737229
 O         -4.9994917257        3.4950447251        4.1830963373
 H         -5.6587765080        2.8263876406        4.4083065959
 H         -4.2338463835        2.9908812944        3.8312206122
 O         -3.9334226664       -2.8014236595        6.0776626009
 H         -4.7575983981       -3.1700995020        5.7413911060
 H         -3.2184811689       -3.2292629540        5.5731386010
 O          0.8551256793       -0.2688791678       -4.8762293531
 H          0.0022416361        0.1684389923       -5.0780427867
 H          0.6140308950       -0.9431343579       -4.2074164409
 O         -3.9881718388       -5.1259559365        3.2606650990
 H         -3.5901448037       -5.6734719474        2.5424154517
 H         -3.3119828203       -5.0928508642        3.9553243888
 O          1.8274273117        2.5348906381        4.0147717970
 H          0.9818128282        2.3698324755        3.5400297615
 H          1.5558931345        2.9278930666        4.8586036204
 O         -0.4061120325        1.9881512447        2.7709095756
 H         -1.3390272196        2.0330676497        3.0686260332
 H         -0.3077688249        2.6212693194        2.0351253879
 O          4.6207163691        6.1958252577       -1.6840886813
 H          5.3539518882        6.1693532261       -1.0591609411
 H          3.8240268765        5.9400042162       -1.1691747613
 O         -2.1492731984       -0.8724383674        4.3704579396
 H         -2.5219317033       -1.4824308287        3.7119016269
 H         -1.2679065989       -0.6215590250        4.0482734573
 O          0.4760503774       -0.1905000155        4.0230700504
 H          0.2277611011        0.4958160630        3.3781250507
 H          0.4680229824        0.2354255157        4.8999330926
 O         -3.0613042375        4.1721903715        6.0732191147
 H         -2.3523082800        4.5564398472        5.5367721248
 H         -3.8371142378        4.1181428248        5.4887082814
 O         -3.3055794032       -2.8231467229       -0.7957907884
 H         -2.6595605425       -3.2460058547       -0.2004553239
 H         -2.9007771379       -2.8721954782       -1.6752270743
 O         -0.0454021394        1.9941283838       -3.2360956060
 H          0.0461778996        2.2887137133       -4.1521104971
 H         -0.8022257774        1.3889911572       -3.2071307848
 O          0.6570820689        6.0711408024        2.4265443076
 H          1.6430740521        6.0309316560        2.4599640612
 H          0.4483697115        6.7151532074        1.7425652911
 O          2.5057800714       -1.8248725309        3.2948358018
 H          1.7667697205       -1.2508039451        3.5618741780
 H          2.6383897031       -1.6654467873        2.3440467627
 O          2.8079764319        1.4485190805       -4.2786150470
 H          2.0222438223        0.8749739581       -4.3931487997
 H          3.2830079238        1.1385154020       -3.4814920275
 O         -0.0718723812        4.1138326921       -1.6092217257
 H         -0.0948194549        3.2744359933       -2.1115471689
 H          0.4431069076        4.7366661054       -2.1536508928
 O         -1.8487621922       -3.7695855082       -2.8907652947
 H         -1.7298188045       -4.2951331950       -3.6986955853
 H         -1.1081058975       -3.1292438420       -2.8766105085
 O          2.8321141508        4.0470739978       -4.9253476329
 H          3.7232358853        4.2657684779       -4.5994511644
 H          2.7543325659        3.0865064131       -4.7736903512
 O         -4.4518671739       -0.0835869444        2.8359365816
 H         -5.3209327635        0.2490116368        2.5763347125
 H         -4.5042772735       -0.2662368406        3.7989010841
 O         -1.0240797849        4.9629277360       -4.3875889154
 H         -0.5239919438        5.6630658621       -3.9436006745
 H         -0.3981436736        4.3818251575       -4.8484771941
 O         -0.9110107004        4.7883717026        4.3482890677
 H         -0.3061153500        5.3991423401        3.9034665141
 H         -1.4665095624        4.4610413333        3.6076157318
 O         -1.7305420714        0.0548256157       -2.2201139939
 H         -2.5935994677       -0.3138053488       -2.4715160924
 H         -1.8763956427        0.6972488826       -1.4915861657
 O          4.7324741590        3.3178273414       -0.2078830259
 H          4.1278860998        3.2609566765       -0.9707878036
 H          4.1258848095        3.2907904997        0.5575185012
 O         -1.3008815098       -1.5669609262        6.7371466826
 H         -2.0444035363       -1.8674408630        7.2604368151
 H         -1.6939295381       -1.3247667485        5.8515417424
 O         -5.8346614268        2.6971931387       -5.0904550368
 H         -6.6776323663        2.3437512173       -4.7964456778
 H         -5.7898194317        3.6186738264       -4.7750493447
 O         -2.3787337167        4.2689670039        2.2116204070
 H         -2.8471589024        3.4263506438        2.1160107604
 H         -2.1205539725        4.5548789308        1.3083254260
 O          6.6195773315        5.1574976253        0.1649985548
 H          7.0772948452        4.8301835160        0.9536631826
 H          5.9101892383        4.4982863511        0.0060481824
 O          5.4157229040       -2.8211184587        0.8285450545
 H          5.4874225961       -2.3093469641        1.6535103724
 H          5.7099277350       -2.2391583068        0.0806321970
 O         -4.8278092464        5.4273132274        2.2070444247
 H         -5.1131243390        4.9233771426        2.9857626069
 H         -3.8812590813        5.1907264947        2.1431118363
 O         -8.3842822685       -3.5059110752        2.5220488451
 H         -9.0720753509       -3.2655326762        1.8937913789
 H         -7.7579787617       -4.0535777054        2.0272482882
 O         -1.3668619354       -5.5453740654       -4.9916677933
 H         -0.6781536392       -6.1684710073       -4.7245203976
 H         -0.9476828948       -4.9136634963       -5.5962942236
 O          0.4332072471       -4.1427937247       -1.1375614126
 H         -0.1353660389       -3.8329670388       -0.4117479571
 H          1.3564810564       -4.1078325363       -0.8226347665
 O         -7.9120892708        2.8514030140        2.7016659595
 H         -7.7183993660        2.6458451262        3.6240963795
 H         -7.3521538581        2.2155721609        2.1967035675
 O         -6.7069681845        1.2500356404        4.6512321540
 H         -6.0250718851        0.8985465405        5.2445167520
 H         -6.9807032000        0.4601428268        4.1573079999
 O         -1.0296209714        7.2818768699       -2.7695094463
 H         -1.9410291879        6.9131609658       -2.7008076226
 H         -1.1137114516        8.1128122403       -3.2332274996
 O          2.9590790527       -1.7684808396        0.6730158758
 H          3.2349104606       -0.8283721759        0.5868384476
 H          3.7920037088       -2.2739275544        0.6197597906
 O          2.4347140469        5.3731673144       -0.3958034433
 H          2.2826069525        4.5137455773       -0.8345230860
 H          1.5902197066        5.8652392708       -0.3999699070
 O          0.1256826511        0.7927771740        6.5520324980
 H         -0.3105095451       -0.0382021058        6.8106550402
 H          1.0015542535        0.7850335251        7.0111174433
 O          3.9189501852        0.6714996305        0.5752422908
 H          3.2740036234        1.3827297613        0.7565836383
 H          4.6424034931        0.8703370599        1.1950430953
 O          6.8984919921        3.4695717435        4.7885080346
 H          7.3435948418        3.7343357306        3.9640020666
 H          7.0117788158        2.5057451804        4.8239677741
 O         -9.0018453595        3.2157950375       -2.8065545637
 H         -9.4135822362        2.7381259213       -2.0707958356
 H         -8.6394343410        2.5264057045       -3.3829209510
 O          4.4390831705        3.7989033160        3.6806864769
 H          5.3050860236        3.8696816852        4.1284418856
 H          3.7733565479        3.9098759233        4.3742931218
 O          0.3499028094        3.7934616825        0.9970226800
 H          0.3564376188        4.6564106254        1.4577528367
 H          0.1685075275        3.9309180185        0.0454813755
 O          5.6914690571       -1.5751168343        5.5806398137
 H          6.0571344842       -2.4609155879        5.6175720775
 H          4.7518696831       -1.6288394356        5.8559640265
 O          7.6738658716        3.4975520381        2.1586297808
 H          6.9075311668        2.8901398688        2.0779529791
 H          8.4521535525        2.9424397152        2.0063986132
 O         -3.2466335974        4.4527375204       -5.9232205153
 H         -4.0823629370        4.6727052588       -5.5035334277
 H         -2.5400847657        4.8041737084       -5.3587809359
 O         -6.1049283492       -3.7160364631        4.4549011446
 H         -6.9712127177       -3.9654527257        4.1170083130
 H         -5.4567071145       -4.2645714721        3.9877126673
 O         -2.5852557918        1.5791335441        6.2579298361
 H         -2.7473766388        2.5477279602        6.3632738802
 H         -1.6563264492        1.4080528036        6.4512411342
 O          3.0606544243       -1.4632140681        6.0016517241
 H          2.2993583115       -2.0563884908        5.8459217375
 H          3.0804934775       -0.8476603597        5.2372508500
 O         -2.8489191423       -6.4809095387        1.3045640162
 H         -1.9319265850       -6.5110985815        1.6157114518
 H         -2.8107251478       -6.1652308679        0.3886218387
 O         -4.5812803021       -0.2022878134        5.5434595097
 H         -4.3304040852       -1.1113947805        5.7892990423
 H         -3.8615394919        0.3643089089        5.8640474496
 O         -2.0560885420        2.0853583716       -0.4955602507
 H         -2.7773472811        2.1455957736        0.1472864753
 H         -2.2352301210        2.7284536922       -1.2032651740
 O          6.3764914236       -5.1548568772        0.1619073716
 H          6.0449362762       -4.2504963010        0.3968220499
 H          7.1008782948       -5.3128003606        0.7887614916
 O         -1.6578638945        0.5408303710       -5.1534836391
 H         -1.7754058125        1.1436527986       -5.9206513799
 H         -1.9323738681       -0.3549601510       -5.4447156193
 O         -3.1289158458       -2.6445920919        2.5006382719
 H         -3.9028944348       -2.2485121576        2.0592960746
 H         -3.4498435864       -3.4892681797        2.8569604909
 O          4.2857661248        0.0757355123       -6.1137180085
 H          3.7546304746        0.6987015826       -5.5794845933
 H          3.6560240422       -0.5598786994       -6.4899878021
 O         -6.8929169850       -1.2721589936        3.4572707551
 H         -6.5363660689       -1.9682574383        4.0319616597
 H         -7.7577260307       -1.5853950337        3.1535351866
 O         -3.4562247498       -0.2813188964        0.2470102997
 H         -3.4665955387       -1.1894636491       -0.1006696852
 H         -3.8876905615       -0.2866755753        1.1125367468
 O          5.1937532777        4.5754442021       -3.6683645604
 H          5.8515467200        5.0738321564       -4.1539070616
 H          4.9520469881        5.1474856140       -2.8909162972
 O         -5.5145179549       -2.1967682777        1.3211274357
 H         -6.0097402412       -1.7241028016        2.0215021512
 H         -5.8079219768       -3.1259371389        1.3730537950
 O         -4.6634376876        4.0615642683       -0.8565733711
 H         -4.5659033819        3.1842938537       -1.2657654747
 H         -5.5017627783        4.4177325370       -1.1963339031
 O         -2.8872000317        1.9100255099        3.6266179821
 H         -3.3340807697        1.1453406352        3.2112358934
 H         -2.7384282900        1.6629385222        4.5628060256
 O          3.1032847487        4.4496965087        6.0670998758
 H          2.1699964291        4.2188636567        6.2437902681
 H          3.1944751151        5.3897951485        6.2188459786
 O          0.0682352043        6.7705386727       -0.3002073733
 H         -0.7467668357        6.2899494596       -0.0870813536
 H         -0.1016959923        7.0860851861       -1.2027269002
 O         -6.0257950497       -1.7144173216       -1.2365353025
 H         -5.2274788115       -1.5671444357       -1.7975532164
 H         -5.7303400306       -1.8578522640       -0.3121415474
 O         -0.1498732080       -6.6921195001       -1.1767078989
 H          0.0694209510       -5.7190636907       -1.1690123009
 H          0.4746658895       -7.0926319474       -0.5650643304
 O          2.9783319148       -7.2256680631       -2.1576189308
 H          2.6786849735       -7.0740191076       -1.2530851735
 H          3.7267704714       -6.6324268133       -2.3050390998
 O          0.7197364813       -7.0127626152       -3.6870996118
 H          1.6140756144       -7.3109369699       -3.4540759991
 H          0.2554288016       -7.0189115406       -2.8231245549
 O          4.5883329363        2.1647539821        6.3620780675
 H          5.5066247477        2.4365673896        6.2934316407
 H          4.0679866313        2.9854324692        6.3227638788
 O          2.5456562351        2.9665467635       -1.6964257268
 H          2.3767966903        2.9339453832       -2.6411116407
 H          2.0863381355        2.1710108762       -1.3180766963
 O          2.5347724014        0.6084047962        7.6137117604
 H          3.2359711047        1.2167124092        7.3503102715
 H          2.7639356246       -0.2408277438        7.1823071403
 O          3.6097835329        0.5971252670        4.3033911593
 H          2.8739641949        1.2113125410        4.1028786911
 H          4.1047155534        1.0510028122        5.0044146976
 O         -0.2366575312       -6.0240061106        2.1342425909
 H          0.2138215767       -5.7217933353        2.9355618813
 H          0.4758571730       -6.3151704479        1.5447776942
 O          1.4464766265       -3.9322602608        1.5212492092
 H          1.9851497929       -3.1876361464        1.2176880703
 H          1.8739730642       -4.3078620907        2.3009748639
 O         -0.3375758696       -2.8064837624        3.1617557306
 H         -0.6148344239       -2.0016946986        2.6878100057
 H          0.2764689173       -3.2642964158        2.5519126273
 O          1.6520870748       -5.0860401206        4.1025264098
 H          2.6111666673       -4.9824080543        4.1339275014
 H          1.3173312364       -4.4072100287        4.7111271101
 O         -2.6106504537        3.6723055141       -2.6785731714
 H         -3.0620722218        2.9813281828       -3.2036244323
 H         -1.9248145060        4.0518935009       -3.2628649662
 O          3.9479700259       -5.4708077727        1.4038577750
 H          4.8393965415       -5.5929081460        1.0391101962
 H          4.0469998993       -4.9038376980        2.2048819392
 O          3.2785681069        5.8344681533        2.1777274240
 H          3.1606793806        5.6028961540        1.2403991277
 H          3.7520211808        5.0980457218        2.5950475012
 O          0.7787576087       -2.8934656110        5.5798972467
 H          0.4943199600       -2.6197234312        4.6805915030
 H          0.1215770202       -2.4855726969        6.1699710743
 O         -3.7416621733        1.6088426238       -3.9004997028
 H         -3.0222709641        1.1699026798       -4.3998206801
 H         -4.4380123261        1.9222449234       -4.5145281754
 O         -1.4407276253       -3.8817463371        0.8075448064
 H         -1.8333921986       -3.3114625634        1.4996694868
 H         -1.0194502985       -4.6194073504        1.2813325135
 O         -6.4704779781       -4.9614768094       -3.2809172239
 H         -5.9551873998       -4.8438073981       -2.4530656078
 H         -5.9501869652       -5.5799575335       -3.8028933620
 O          1.9585325177       -7.0712369024        0.6573218064
 H          2.6418852896       -6.4333554013        0.9638669692
 H          2.1755152815       -7.9103933145        1.0634115365
 O          0.2049094674        2.9761850582       -5.8120148144
 H          1.0078033500        3.2295229263       -6.2696013585
 H         -0.4855806676        2.7707092154       -6.4603778110
 O         -4.2229905323        2.5080957345        1.2564143405
 H         -4.9873997300        1.9473709733        1.4018534649
 H         -4.5147975698        3.2297622770        0.6669655807
 O         -6.6647801408        0.8898438872        1.4326621954
 H         -6.7446536672        0.9157648520        0.4576049834
 H         -7.3775603837        0.2699881266        1.6996584525
 O          3.4174469282       -3.0046483332       -4.3546815031
 H          4.3147760108       -3.3370759654       -4.2126354192
 H          2.7700967419       -3.7142903440       -4.1718817054
 O          5.0335706556       -5.2969592830       -2.2382386667
 H          5.5920633973       -5.4326357565       -1.4585602290
 H          5.4726022798       -4.6169011702       -2.7785263335
 O          8.3474844190       -4.8557904481        2.0175347901
 H          8.5197666902       -3.9745414953        1.5989398184
 H          9.1938278526       -5.2947093368        2.0884567561
 O         -3.5133428328        6.2343755127       -2.6379244815
 H         -3.9393537477        6.5114478365       -1.8042556949
 H         -3.2595019143        5.2936327413       -2.5225190659
 O         -2.1884079579        2.2660209177       -7.0939626049
 H         -2.6522544710        3.0529470116       -6.7392530325
 H         -2.8923483901        1.6505890173       -7.3688373492
 O         -3.8860361740       -5.9743400509       -3.9806769694
 H         -3.5338139623       -6.0906792919       -3.0811076723
 H         -3.1124000188       -6.0449874947       -4.5587271859
 O          5.6273134447        1.7370075652        2.4030618505
 H          5.9942402659        1.2903792297        3.1879868288
 H          5.0053696355        2.4023578793        2.7514882704
 O          7.2205278603       -0.3389863807        1.2414120885
 H          6.9126790802        0.2573680647        0.5221358927
 H          6.4460311046       -0.4610897091        1.8296247671
 O          3.0941978381       -4.1223018874       -0.8130257884
 H          3.7122889640       -4.5165955750       -1.4551333266
 H          3.3365443524       -4.4985197167        0.0509155848
 O          4.1392573687       -3.9378469142        3.5641618390
 H          3.6169796762       -3.1072020446        3.5446365066
 H          5.0668383460       -3.6855574538        3.6893700096
 O         -3.9160991258        0.1374660547       -7.1239569074
 H         -4.5822659132        0.1187536778       -6.4189654710
 H         -3.3863941752       -0.6599262555       -7.0020355769
 O          2.5808388155       -1.7892243485       -2.1405389949
 H          2.8015259517       -2.4522788767       -1.4638435327
 H          2.8946791064       -2.1557582881       -2.9951173074
 O          5.2536059005       -1.0754652679        2.9122534268
 H          4.5028719475       -0.4994848929        3.1500043892
 H          5.5747758413       -1.3855314465        3.7767849178
 O         -0.0097124157       -1.8352572853       -2.9053023427
 H          0.8326392277       -1.8108279376       -2.4152660944
 H         -0.5876636854       -1.1053250623       -2.5928374938
 O        -11.0401763891       -0.6462170791       -1.6531911290
 H        -11.9490953281       -0.3708284663       -1.7650679104
 H        -10.5383015325        0.1506659739       -1.3480242075
 O         -9.1476560696       -1.4329939979       -3.5475433081
 H         -9.9610391589       -1.1497672703       -3.1061335368
 H         -8.7583762663       -2.0768103619       -2.9191821751
 O          9.3817129945        1.3885335205        1.4284798442
 H          8.5492659945        0.9159013870        1.2643379387
 H          9.6103169915        1.8591880477        0.6013365735
 O         -7.1163058841        4.8389552956       -1.7191505881
 H         -7.3533314171        4.9233707545       -0.7767706123
 H         -7.8195418805        4.2965514923       -2.1276382085
 O         -5.6108331015       -0.3551206000       -4.9335200766
 H         -6.3213965671        0.2511552810       -4.6608192892
 H         -6.0378572912       -1.2162433781       -5.0650138013
 O         -5.5765073785        5.2078278558       -4.0623811437
 H         -4.8211892587        5.6903535083       -3.6700523218
 H         -6.2427384818        5.1969862925       -3.3629187397
 O          8.6183103985       -1.1337067811        3.4716863810
 H          8.2390583114       -0.8469137692        2.6225746206
 H          9.5709153997       -1.1155991971        3.3599052386
 O         10.1463998872        2.7621132095       -0.7601637375
 H         10.9932209352        3.1828932676       -0.6117035609
 H         10.2595208536        2.2049904381       -1.5777712017
 O         -2.2654128535       -1.9164693935       -5.9801604094
 H         -1.4292284110       -2.4176171456       -5.9965277984
 H         -2.8957737784       -2.4540348289       -5.4716205725
 O         -1.9078182755       -4.2160415119        4.7821300154
 H         -1.2674061188       -4.4475387676        5.4557482166
 H         -1.4129266253       -3.6669540450        4.1275961490
 O         -4.9074714321        6.8708608543       -0.3565233593
 H         -4.7381949681        6.5014338206        0.5193535290
 H         -5.8259061958        6.6748430236       -0.5553842515
 O         -2.1610968352        5.1285895661       -0.2496702993
 H         -1.5667591610        4.6790115022       -0.8818753726
 H         -3.0683893801        4.8874318045       -0.4982646219
 O          1.4840138582        5.6085543403       -3.2408481420
 H          2.1587349021        6.1640712154       -2.8485596846
 H          1.9368135005        5.0427012785       -3.9064549330
 O         -9.8193754509       -2.4203310645        0.1181351385
 H         -9.1817368779       -2.8242702602       -0.4980331809
 H        -10.4105638973       -1.9061052064       -0.4541427091
 O         -7.7742532910        0.9009214688       -3.8029485362
 H         -7.4844718784        0.8863564074       -2.8663593630
 H         -8.3426824485        0.1104333013       -3.8824276893
 O          6.9648723461        2.6566831775       -2.8687892558
 H          6.1738056245        3.1114289411       -3.2035215525
 H          7.5451965950        3.3908498762       -2.5375646893
 O          8.1200109945        0.5591467570       -4.0340459709
 H          7.3157252328        0.0823268291       -4.3182675599
 H          7.7607858807        1.3918652530       -3.6614494015
 O          2.7487640837        2.8659038611        1.4925400428
 H          1.8775621468        3.2122178144        1.1905037212
 H          2.6985634244        2.8829135186        2.4588416568
 O         10.5816338000        1.2270268850       -2.8343731789
 H          9.8199726397        1.0386562637       -3.4014771778
 H         10.8328044076        0.3889479505       -2.4132683241
 O         -4.1287462296       -3.3267360388       -4.5538789649
 H         -4.0624250231       -4.2756500214       -4.3276562549
 H         -5.0045501368       -3.1838742306       -4.9271679948
 O          0.5765447158        3.5739753456        6.1881932070
 H         -0.0618472220        3.9994909579        5.5725015108
 H          0.2174757298        2.7174331453        6.4491457674
 O          8.4214806237       -4.0193514944       -1.4466274178
 H          7.5885300277       -4.4442107222       -1.2000884981
 H          8.2280016992       -3.3157161164       -2.0840168312
 O          6.9038120723        0.7052689610        4.6327978360
 H          6.3761544410        0.0875137001        5.1622556015
 H          7.6619446742        0.1812285142        4.3308704630
 O          6.1039298998       -1.3819278700       -1.2046190354
 H          5.9565736780       -0.4249586752       -1.1269614907
 H          6.9768905879       -1.4714955733       -1.6250678107
 O          8.6881333830       -2.5627756130        0.7480463638
 H          8.6832886459       -3.0068714175       -0.1333544693
 H          8.0015788308       -1.8682289922        0.7299515213
 O          6.8817002720       -3.3719750084        3.8332967554
 H          7.4769035078       -2.6071559095        3.7902082956
 H          7.3128643365       -4.0612608836        3.3090194107
 O          8.5295798842       -1.4721708192       -2.3418547406
 H          8.4183843900       -0.7376177628       -2.9838988739
 H          9.4196967543       -1.3704541085       -1.9695411662
 O         10.7911208701       -0.9201680485        1.2132524103
 H         10.3847755142       -0.0398226304        1.3579756454
 H         10.0552315859       -1.5592418871        1.1302857766
 O          6.4476878159        1.3103381808       -0.6494594235
 H          5.8152466803        1.9820949666       -0.3217520960
 H          6.7494532203        1.6916321304       -1.5000559538
 O         -9.6430993202        1.4294819770       -0.7899984891
 H         -9.8383071165        1.6390505452        0.1433207560
 H         -8.7088539193        1.1573049492       -0.8350835647
 O         -8.8824697070       -0.5315999416        1.7740128534
 H         -9.2148927085       -1.2101492129        1.1515786613
 H         -9.5742940970        0.1293603718        1.8800718268
 O         -5.0745333716       -4.7569925704       -1.0014903942
 H         -4.3935923971       -5.4363397915       -1.0990492943
 H         -4.5587629573       -3.9153028814       -0.9189788427
 O         -7.0478554642        0.6791227169       -1.2130341620
 H         -6.8370872456       -0.2870287511       -1.2289223755
 H         -6.1490600582        1.0961348313       -1.3669125319
 O         11.0922153586       -1.0787031895       -1.3993529092
 H         11.0796957334       -0.9692709771       -0.4116292647
 H         11.7845003670       -1.7081470475       -1.5968675454
 O        -10.2135984501        1.9390941991        1.8120852173
 H         -9.3856552193        2.3372770604        2.1888187647
 H        -10.9246461394        2.5449224202        2.0159875504
 O          2.2506057089       -1.8116197085       -6.5289447268
 H          1.7119244012       -1.1583627917       -6.0324470115
 H          2.7537804747       -2.2835028065       -5.8438361911
 O         -4.0638877337       -1.1817992924       -2.9432298853
 H         -4.5351204699       -0.6459928712       -3.6184793083
 H         -3.9005444101       -2.0226405986       -3.4075639982
 O         -8.0922878593       -3.2220167369       -1.8134705452
 H         -7.2647462748       -2.7317849899       -1.5965503154
 H         -7.8187191976       -4.0391195449       -2.2417985249
 O         -2.6594192341       -5.8810325366       -1.4742308356
 H         -2.3193126510       -5.0351262202       -1.8486900994
 H         -1.8638098037       -6.4326258770       -1.3898770273
 O         -7.2347913553        4.9537942483        0.9728305965
 H         -6.3609750388        5.1851897560        1.3355430464
 H         -7.6004897522        4.3152776258        1.5979998468
 O         -4.6428436480        1.4266462124       -1.4656083749
 H         -4.1336799839        0.8292332568       -0.8752401328
 H         -4.2758802319        1.3532397939       -2.3713363673
 O          8.3482836416        4.6023551075       -1.8076070655
 H          9.0203706196        4.0696688160       -1.3553996706
 H          7.7356177263        4.9158753601       -1.1054316878
 O          0.0507724071       -3.3675660812       -5.9082361215
 H          0.4741471709       -3.5752503642       -5.0511755485
 H          0.7375296245       -2.9007774814       -6.4153258308
 O         -6.9282847656       -2.7797857745       -4.8830930034
 H         -7.7991565916       -2.3948774833       -4.7366550935
 H         -6.8740754160       -3.5572882372       -4.2953225919
 O         -6.1947383778       -4.8142463458        1.4017507655
 H         -5.5444774703       -5.2381699931        1.9698807875
 H         -5.8831234857       -4.9321958045        0.4785542509
 O          1.2703714897       -4.4026461506       -3.7183916015
 H          1.1262188560       -5.3696744310       -3.7782206855
 H          0.9213272706       -4.1338256519       -2.8531200835
 O          6.1204387008       -3.3187452113       -3.7634214411
 H          6.0106781120       -2.3285335599       -3.7688527653
 H          6.7731136711       -3.5093734711       -4.4360997158
 O          4.1309377404        0.3926180232       -2.1930007114
 H          3.6030663763       -0.4287604599       -2.1429261930
 H          4.1425165892        0.7360107016       -1.2843743448
 O          5.7710661867       -0.7407768705       -4.1011289486
 H          5.2576471646       -0.5068239441       -4.9134098605
 H          5.3018567928       -0.3089298044       -3.3641752453
