  192
       -320.55084661
 H          3.0065570702       -0.5956485987        1.9581400652
 C          2.7422892396       -0.7081342517        0.9067035916
 H          2.2306496352       -1.6595394647        0.7646721244
 C          4.0293947976       -0.6872346661        0.0885939182
 H          4.6700278261       -1.4876403963        0.4455097362
 H          4.5417002471        0.2639621534        0.2222389969
 O          1.8732478343        0.3609268109        0.5866051789
 H          1.3933589031        0.1136032652       -0.2325555434
 N          3.7662430967       -0.8782796327       -1.3487993280
 H          3.1579113628       -0.1008682624       -1.6935501527
 H          3.3358289602       -1.8161920266       -1.5488044650
 H          4.6513714222       -0.8070440229       -1.8817990018
 O         -0.6995175306       -1.4718292447        1.2975694886
 H         -0.0395826676       -2.1484129979        1.5305404842
 H         -1.4469658245       -1.9304744707        0.8947420035
 O         -4.3842862925        3.8127428649        1.4285960689
 H         -3.5146636981        3.7335420871        1.8495954921
 H         -4.2927068364        4.3967234386        0.6615055914
 O         -3.1704636918       -2.4211327653       -0.1252142064
 H         -3.6110169586       -3.2807568164       -0.0122902533
 H         -3.9113737445       -1.7873783441       -0.1602311325
 O         -2.8066090699        2.4130447669       -1.0413443304
 H         -3.7756310420        2.5286916129       -1.0605956618
 H         -2.6022919841        1.4586031277       -1.0728855566
 O         -0.7533459589        1.4475954252        0.8556381520
 H         -0.0448638987        0.8365724698        1.0917838529
 H         -1.5817587153        0.9208202065        0.8805672099
 O          0.6095314242       -3.2082633378       -0.4828802930
 H         -0.1408202134       -3.5475822595       -0.9990888702
 H          0.5584746201       -2.2388694513       -0.6256869222
 O         -3.3402809274        1.1399465428        3.7064006973
 H         -2.5524024414        0.5754165229        3.7575965591
 H         -3.0247138211        1.9783384559        3.3247345066
 O         -2.2222941950       -5.7200515290       -0.5402083005
 H         -2.1793767789       -5.2271616655        0.3114312259
 H         -1.8554792670       -6.5882214780       -0.3764350793
 O         -5.8378686306       -1.9956003842        2.2869708483
 H         -6.1845341505       -1.2315066863        2.7684775744
 H         -4.8738250872       -1.9828536277        2.4886293097
 O         -0.9519274717       -0.2982230249        3.6550612213
 H         -0.9024765617       -0.6890580957        2.7462366791
 H         -1.2258151794       -1.0263770968        4.2375392824
 O         -2.0742372346       -0.1330174345       -1.5313685231
 H         -2.3937701567       -0.4840603597       -0.6859384006
 H         -2.6193206718       -0.5245899474       -2.2454804932
 O         -4.9993834406       -4.7436713030        2.1802341600
 H         -5.1686110905       -4.8837308554        1.2372643812
 H         -5.4888826254       -3.9415250875        2.4058216952
 O         -1.7855330029       -2.5112073755        5.0393835381
 H         -1.7453822697       -2.5924217373        5.9919216934
 H         -1.3075041397       -3.2798041443        4.6581578717
 O          3.6390369150        3.0156179417       -0.2770740882
 H          3.0035780634        3.7312990495       -0.1501695381
 H          3.1672191773        2.3158130377       -0.7857738654
 O         -0.5166308907        0.8544571549       -3.9336925578
 H         -0.6750948300       -0.0983054125       -4.0424811035
 H          0.2365921043        1.0940680698       -4.5035725855
 O          2.6944200907        1.5119917507        4.9896332950
 H          3.1856208740        2.3342210446        4.8545202938
 H          1.7617416613        1.7660508382        4.8472889504
 O          3.5404516638        3.8226500864        3.6396811757
 H          3.3005938334        4.7325271428        3.8136402023
 H          2.8608380045        3.4596864684        3.0294978109
 O         -1.4230859567        4.5097246131       -0.0832919179
 H         -1.8836783197        3.6708742003       -0.2854222198
 H         -2.0606973005        5.0750260843        0.3563661121
 O         -4.7647428368        1.4120464159       -3.9662914470
 H         -3.9093242945        1.9275981392       -3.9297402612
 H         -5.1897781519        1.6593772807       -4.7874572040
 O          0.0417971976        2.1579966052       -1.6309546866
 H         -0.3237347530        1.9476975908       -0.7470356206
 H         -0.3839004644        1.5880159600       -2.2936860288
 O         -3.2279643754       -1.9660110179        2.7606669389
 H         -2.9640210930       -2.0849999843        3.6821771671
 H         -2.8752885345       -2.7400668883        2.2752772491
 O         -4.7549834615       -4.6180637445       -0.5688004814
 H         -5.0628646521       -4.1344142247       -1.3509891728
 H         -4.0422826920       -5.2125486663       -0.8405330447
 O          6.6465976192        1.2967107229       -0.1157722433
 H          6.3744728985        1.7947415165        0.6684902299
 H          6.6495658054        1.9166949093       -0.8494304283
 O          3.4943537295       -0.1671362390       -5.0048438302
 H          2.9129073179       -0.8085612294       -4.5635596309
 H          4.2047931275        0.0422298093       -4.3737670778
 O          7.3394372937       -1.2869539897        0.4527595876
 H          7.2169032888       -0.3335787793        0.3043506865
 H          6.8317006898       -1.5107053804        1.2514706661
 O          0.1891606174        2.2131332086        4.0687604490
 H          0.6928222520        2.3934022181        3.2488934345
 H         -0.2469676347        1.3577528474        3.9426671420
 O         -4.0843006012        5.1592270511       -0.9996232212
 H         -4.7066407744        4.5532650259       -1.4198516862
 H         -3.5213851866        5.5121449952       -1.6995065219
 O         -5.9026625418        0.5466960943        3.3851635113
 H         -6.3842557580        1.0475840504        4.0432615717
 H         -4.9453851710        0.7110485004        3.5646717999
 O          0.5381506069       -0.7118927226       -1.4482813198
 H          0.8850063422       -0.8936935920       -2.3410852130
 H         -0.4119985324       -0.4948726219       -1.5338942610
 O          4.8862638189       -4.4037695763       -0.6479987542
 H          5.4239070163       -3.6520853137       -1.0013240492
 H          5.4401434644       -5.1836909265       -0.6744145638
 O         -0.5062821005       -4.5334882927        3.7973555255
 H          0.1751854996       -3.9940870345        3.2970443239
 H         -0.0272364051       -5.2408837826        4.2287872484
 O         -5.5455994422       -1.0710696138       -0.1777369297
 H         -5.5608502465       -0.1195194853        0.0007392808
 H         -5.7889877703       -1.4950672995        0.6810002077
 O          1.2038964025       -3.0209419454        2.5719142745
 H          1.4616843575       -2.3498387024        3.2352146169
 H          2.0447113189       -3.3934501488        2.2413846442
 O          3.0594108528        3.2675047038       -3.8872844330
 H          2.6038775337        2.8424433145       -4.6323969600
 H          2.4162436843        3.9027506054       -3.5223274348
 O         -2.3942524122       -4.3802605060        1.8082766137
 H         -3.3040247650       -4.6554218105        2.0707045466
 H         -1.7853949929       -4.6099074588        2.5285238831
 O          2.5221075898        1.3983337491       -2.0553094234
 H          2.8063079953        1.9665727370       -2.8032156291
 H          1.5743546120        1.6117064066       -1.8986713448
 O         -1.6034745693       -3.5043419566       -2.0095310475
 H         -2.1746940422       -2.9750513169       -1.4133650055
 H         -1.8270789004       -4.4245495481       -1.8141702748
 O          3.6829076858       -3.7388049869        1.8037785097
 H          4.3687025085       -3.1523073749        2.1617529243
 H          4.0210212897       -4.0517590431        0.9522454636
 O          5.7016408835       -1.9727680697        2.6127070907
 H          5.2551585231       -1.1370377400        2.8836442224
 H          6.2020525666       -2.2644196769        3.3760484634
 O          2.7491408242       -3.3323465529       -1.9390787731
 H          1.9650462226       -3.4255810715       -1.3341703759
 H          3.4378772904       -3.9134438018       -1.5829197846
 O          1.6172093344       -1.0736015110        4.3718378102
 H          2.2066912566       -0.3866004318        4.7008207491
 H          0.7661993545       -0.6376175960        4.2043529033
 O         -3.6816914104       -1.0485841438       -3.4782082570
 H         -4.1552686592       -0.2293374763       -3.7091478147
 H         -4.3443586004       -1.6849777754       -3.1627677030
 O          1.6228065457        1.5821918675       -5.5010927839
 H          1.5093794437        1.6468697936       -6.4490313385
 H          2.3527602203        0.9199467146       -5.3500121694
 O          0.9700786210        4.4797453131       -2.6627676047
 H          0.2037589378        5.0275207885       -2.9045231878
 H          0.5824966405        3.6338853068       -2.3600254271
 O         -1.6549414247        5.2591198260       -2.7368703550
 H         -1.5380844237        5.0025833987       -1.8022132932
 H         -1.9675366925        4.4741954025       -3.2106093731
 O         -1.1242585684       -1.8543437440       -4.1227280448
 H         -1.1941136586       -2.4950395142       -3.3913897121
 H         -2.0450604732       -1.6133026590       -4.2922468298
 O          4.5247339602        0.2963715136        3.2675145259
 H          3.9396174586        0.6485993992        3.9556117322
 H          4.8381817327        1.0685600332        2.7578691829
 O         -5.4215993874        2.7166257897       -1.6347650438
 H         -5.4098228699        2.1713465740       -2.4396920311
 H         -5.8833206825        2.2352405122       -0.9397995977
 O          1.7485084787        2.7247178308        1.9463964329
 H          1.5281141557        3.3846079823        1.2650023558
 H          1.9350579668        1.8926617464        1.4770211389
 O         -3.0674460901        0.1388878567        0.9774819779
 H         -3.1117273984       -0.4932170527        1.7119197514
 H         -3.8729999975        0.6880270452        1.0179870379
 O          1.6101085449       -1.6759445374       -3.7345925431
 H          1.9978338530       -2.4612550144       -3.3146255159
 H          0.7877381184       -1.9413696218       -4.1659012669
 O          6.2378969393       -2.3488718529       -1.6433333694
 H          6.6923049866       -1.9408643139       -0.8505200249
 H          6.9333806012       -2.5664850329       -2.2632914190
 O          5.1916274468        2.5244739129        1.8755724791
 H          4.5750576838        2.6968484030        1.1358765482
 H          4.9176065103        3.1283194101        2.5819063270
 O          5.3773233661        2.8413422013       -2.3675142355
 H          4.8239628404        3.1901943898       -3.0802959985
 H          4.8631838026        3.0092346501       -1.5540392972
 O          5.4720874597        0.2960659624       -3.1214697945
 H          6.3711981324        0.1489225658       -3.4128014030
 H          5.4360113038        1.2346476327       -2.8086694408
 O         -5.4279244899        1.4758750294        0.8825460432
 H         -5.8007372524        1.1868622801        1.7358991017
 H         -5.0772871625        2.3868979620        1.0660063521
 O         -5.6335713542       -2.6431086608       -2.3372488229
 H         -5.6945997650       -2.0535716419       -1.5542262720
 H         -6.5187318724       -2.7217889362       -2.6936671407
 O         -2.4935144273        2.6917696248       -3.6540117466
 H         -2.5361426926        2.6438040947       -2.6677427603
 H         -1.7856846046        2.0707824665       -3.9081807809
 O          1.3052392926        4.6038652321        0.0271676123
 H          0.3459892772        4.6327634367        0.1810596608
 H          1.3695032139        4.7335560560       -0.9381879149
 O         -1.9304015541        3.2096142478        2.5641748665
 H         -1.3081114044        3.2489261668        3.3046703646
 H         -1.4621210281        2.7048118872        1.8689048940
