  192
       -320.54698410
 H         -1.5897245010        1.5196232137       -0.0284363236
 C         -1.1874537160        1.7468325465        0.9625761385
 H         -1.3500022105        2.7984647379        1.1869016547
 C          0.2979654351        1.4477123806        0.9938744293
 H          0.6974573262        1.6497573447        1.9859542946
 H          0.8136392758        2.0632101995        0.2625039204
 O         -1.8166319490        0.9313873187        1.9398307719
 H         -2.7620027594        1.1606755806        1.9631066778
 N          0.4946035259        0.0286857951        0.6824901340
 H          1.4261074602       -0.3091705676        1.0136734105
 H          0.3790660044       -0.1469608328       -0.3261039169
 H         -0.2008221245       -0.5748061837        1.2088998227
 O          0.1066446366       -0.0943887873       -2.0890165553
 H         -0.7165892629        0.1444303366       -2.5416180166
 H          0.6717820990       -0.5495584757       -2.7301131351
 O         -0.3571561062        4.3474710682        2.8740831387
 H         -0.4701548158        3.5386628921        3.4153339773
 H          0.5717374491        4.5873065727        2.9945783941
 O          5.9681835800       -0.5095716140       -4.2652584820
 H          5.4694137846       -1.3269009163       -4.0753136169
 H          6.3445348421       -0.6048126751       -5.1405059062
 O          3.3731301477        1.4562836070        0.4650354247
 H          4.2030032309        1.7245623146        0.0145924210
 H          3.1121302086        0.6255047682        0.0387287956
 O          5.0079587220       -0.5514367742        2.6050056080
 H          4.7445458138       -0.3598284086        3.5362426725
 H          5.5254459052        0.2259194836        2.3071939534
 O          3.8795552308        0.3148449493        4.8402364915
 H          3.8673849403        1.1998730750        4.4444138685
 H          2.9460941864        0.0563599358        4.8881476686
 O          1.2007133679       -0.1287519200        4.2256499548
 H          0.4787012303       -0.6959591650        4.5322631519
 H          1.5761715753       -0.5587116977        3.4370348849
 O         -3.6133624661       -1.2291567633        1.4223273791
 H         -4.5268797510       -1.5580802678        1.2999560789
 H         -3.5054079874       -0.5058119646        0.7955563835
 O         -1.1947682492       -1.4900745938        4.5510255633
 H         -1.4134342798       -2.4367439543        4.5915662671
 H         -2.0569389173       -1.0189791832        4.5392399537
 O         -0.1739798828        4.7217643205        0.1241531959
 H          0.7743544670        4.4813032158        0.0948206588
 H         -0.3536259246        4.7938502976        1.0753255327
 O         -3.4767146767        2.1962721730        4.2575677627
 H         -3.6846663374        1.2476930839        4.2504936852
 H         -2.5944243366        2.2572963088        4.6448533986
 O          2.3560334886       -0.7922096926       -3.4849172619
 H          2.9743183776       -1.5259822468       -3.6452135843
 H          2.8372190921        0.0219744259       -3.7005119130
 O         -2.1473803325       -2.1286766746       -0.8132985993
 H         -1.1729796849       -2.1228217623       -0.7061610263
 H         -2.4555574811       -1.2052913130       -0.8489899086
 O          0.5013199318       -2.5329576579       -0.6629223299
 H          0.6242168483       -2.6979879362       -1.6222526422
 H          0.2787330983       -3.4099746766       -0.2878294328
 O         -1.0262818540       -1.6384807351       -4.6155831314
 H         -1.3569866020       -0.7901056849       -4.2654782769
 H         -1.2210444194       -1.6334527657       -5.5533755738
 O         -6.1806342891       -1.8223752698        0.9042784680
 H         -6.0811473410       -1.6349811621       -0.0499089050
 H         -6.5510851711       -1.0079127028        1.2919318576
 O         -2.6773684113       -3.2822433951       -3.1187863616
 H         -2.0922063311       -2.7776282360       -3.7119862474
 H         -2.5360132190       -2.8895241595       -2.2220373607
 O         -0.7465803128       -5.2200388495       -2.6424202395
 H         -0.6651486900       -5.3135664790       -1.6800727387
 H         -1.6031621902       -4.7914682130       -2.8071178276
 O         -0.9348280224       -1.7876836651        1.9533921725
 H         -1.8669772930       -1.7641939286        1.6859509724
 H         -0.9519187127       -1.5838109076        2.9190323665
 O         -2.1460166518        0.5915469146       -3.4220750465
 H         -2.8916133780        0.3847655750       -4.0526608849
 H         -2.0485293266        1.5748700970       -3.4347896670
 O         -2.7828103244        4.1449065268       -0.4521542314
 H         -3.0642356041        4.2538268679        0.4706824804
 H         -1.8531781081        4.4327805046       -0.4389299726
 O          3.0051510347       -3.5528129653        0.9585015655
 H          2.9764553326       -3.8021641390        0.0154835244
 H          3.9353427390       -3.5815470170        1.2252873065
 O          2.8528760434       -4.3435095548       -1.6805235077
 H          2.5131961589       -5.2371556687       -1.6108125452
 H          2.2467470084       -3.8733885132       -2.2780705837
 O          1.7728504955        2.0430819180       -1.8588535220
 H          2.5631589924        1.8578890047       -2.3802235471
 H          1.1695008124        1.2884599601       -1.9799092720
 O          6.4120961517        1.6375783515        1.8368708094
 H          7.2275967992        1.1404839744        1.6533452417
 H          6.1568220706        2.0037560986        0.9736460910
 O         -3.6577273700       -0.5561225409        4.0375570001
 H         -3.6041710643       -0.7081214457        3.0727727167
 H         -4.0906149379       -1.3665458021        4.3745514217
 O         -5.1511195088        3.3390972885       -1.5010676014
 H         -5.5898142362        4.1509815115       -1.7598299832
 H         -4.2742003216        3.6058850705       -1.1699602859
 O         -1.8399357488       -4.0389529095        3.7308706470
 H         -0.9665011724       -4.4383378585        3.6732078705
 H         -2.1652145527       -4.0129179789        2.8104606478
 O          0.8567527711       -3.2379514807       -3.2070716271
 H          0.2829255642       -4.0452580913       -3.1272158735
 H          0.4260845109       -2.6613189286       -3.8500908445
 O         -5.4374478290       -4.1570622289        2.0086544147
 H         -6.1207991455       -4.8250661247        2.0633842026
 H         -5.8390813755       -3.3611498261        1.6107945632
 O         -2.8155553028       -4.0447525552        1.1123386918
 H         -2.7900999596       -3.2713483177        0.5224343870
 H         -3.7433111445       -4.1907027579        1.3494961733
 O         -3.1889171359        4.0133560427        2.2869155146
 H         -3.4165096764        3.4357371848        3.0466428321
 H         -2.3596571622        4.4304746922        2.5531766743
 O          4.4304952073       -2.6060269253       -3.4256016726
 H          4.7108550615       -2.4911252334       -2.4898585068
 H          4.2292174969       -3.5394815234       -3.5145170065
 O         -7.0664249658        1.2938778197       -0.9866840866
 H         -6.4422647699        2.0337372494       -1.0092088678
 H         -7.2330393574        1.1146200834       -0.0509317359
 O          2.7207174542       -0.9487005734       -0.8250001452
 H          2.6050493285       -0.7989799714       -1.7861007359
 H          2.0591371235       -1.6274963918       -0.5983055039
 O          2.4302561093        4.0506772627        0.2668974077
 H          2.5350937804        4.3337190840        1.1912730512
 H          2.7029593243        3.1155386775        0.2243528913
 O         -4.4140220889       -3.1039393824        4.4220430840
 H         -4.8435780412       -3.4787666508        3.6386455472
 H         -3.5648232453       -3.5591713393        4.4823753759
 O         -4.3237783395        1.7161963139        1.1172327404
 H         -4.0658798105        1.5670825181        0.1930418829
 H         -4.1425982032        2.6384522306        1.3407781607
 O          0.6538969702       -4.0631991413        2.3500075866
 H          0.1899378768       -3.2227725532        2.1819066874
 H          1.5611014967       -3.9426074658        2.0369639264
 O          5.6251612827        2.2036900197       -0.7307914667
 H          6.0731626296        1.4247121069       -1.1233441377
 H          5.4784260207        2.8372123252       -1.4548662808
 O         -0.4532782712       -4.9502976427        0.1056489095
 H         -1.3757706095       -4.7879065864        0.3681039003
 H          0.0291711607       -4.9405392882        0.9577201142
 O          2.4884022053       -1.1113575073        1.9935156244
 H          2.5866729760       -2.0164095871        1.6458533621
 H          3.4040486676       -0.7977697076        2.1521070497
 O         -6.7279708662        0.7011014806        1.7479205606
 H         -5.8305980896        1.0772902297        1.6180671538
 H         -6.9933220250        0.9259167367        2.6402002322
 O         -1.9456827886        3.1826093518       -3.1015072865
 H         -2.3518951510        3.4906886778       -2.2848451753
 H         -1.0596673425        3.5991434539       -3.1271196936
 O         -5.6505401716       -0.9004071438       -1.5498646768
 H         -6.2609405273       -0.1316333182       -1.5799739929
 H         -5.6188489789       -1.3288313057       -2.4207679514
 O          5.6294592192       -2.9087439679        1.5675686729
 H          6.4639542266       -3.2291658881        1.9092535886
 H          5.4549282731       -2.0481397051        2.0198248429
 O         -4.0717440713       -0.1021989590       -5.0142758539
 H         -4.7171994033        0.5696994652       -4.7412385318
 H         -4.4442699443       -0.9436796761       -4.6969623054
 O          8.3273471298        0.0792198645        0.6727077565
 H          7.8951650253        0.0203619818       -0.1955019868
 H          9.2540140064        0.2574187646        0.5123324641
 O         -3.3588787031        0.3084338299       -1.0456373611
 H         -4.2188107171       -0.1240806436       -1.2602429621
 H         -2.9541607835        0.5107410527       -1.9147796948
 O          3.0621076647        5.2344616399       -2.1098366714
 H          2.2242471225        5.0779374773       -2.5730309447
 H          2.9113584878        4.9216885178       -1.1990939496
 O          2.4823816197        4.5793940548        2.9523710464
 H          2.9292078059        5.2832164968        3.4228663409
 H          3.0031654741        3.7576766472        3.1023035431
 O          0.4839229971        4.2522504504       -2.6190974894
 H          0.9635084138        3.4378543417       -2.3417016402
 H          0.1918370386        4.6728614198       -1.8016433591
 O          5.0573705634        3.7731195656       -2.9001024573
 H          5.6717526281        4.3508662967       -3.3526552721
 H          4.2904929292        4.3514663209       -2.6194307272
 O          4.0120354133        1.3508965362       -3.5189250018
 H          4.3663178912        2.2528747961       -3.4208869085
 H          4.7713130439        0.7991371269       -3.7620632774
 O         -5.6863171093        1.4801644942       -3.5252923181
 H         -6.6359836236        1.4829906470       -3.3948603456
 H         -5.3282271878        2.1423238550       -2.9144026615
 O         -0.6447199307        1.9655592864        4.1683084949
 H          0.1020555054        1.4023095287        4.4195124786
 H         -1.0890251524        1.4812278764        3.4444203060
 O          3.9494624553        2.3543531694        2.9528540820
 H          4.9093215409        2.3923109933        2.8485678590
 H          3.6353973008        1.9230240107        2.1310721233
 O          5.1460902915       -1.9719172480       -0.9214479326
 H          4.2632350658       -1.5680866513       -0.7488177766
 H          5.4125583409       -2.4038695091       -0.0893097490
 O          6.7975895400       -0.0279466459       -1.6522215858
 H          6.2130456146       -0.7560125641       -1.3359678066
 H          6.7722670653       -0.0939322835       -2.6163193871
 O         -5.0606936834       -2.3572328383       -3.7967679411
 H         -5.5876551050       -3.0424666366       -4.2074836985
 H         -4.2054864237       -2.7793363979       -3.5233927943
