  219
       -371.63202711
 O          4.4211650328       -0.7359545883       -3.7735763863
 H          5.3564600838       -0.9907406374       -3.7542808662
 H          4.3820571501        0.2346335878       -3.8686077848
 O          2.6135103573       -3.5401281619        0.5197099914
 H          2.9733860138       -3.2422349615       -0.3274550355
 H          3.3644874541       -3.7871613936        1.0983701811
 O          0.0734085444        4.0306716290        2.2158612204
 H          0.2521185659        3.9451657790        1.2466314153
 H         -0.8754533380        4.2899739132        2.2547740857
 O         -2.5301149027       -4.1597297901       -0.6389222617
 H         -3.2104261976       -4.4140146975        0.0009084040
 H         -2.0674135048       -4.9948398635       -0.9006363319
 O          1.5781495672        2.3882436810       -3.3923816976
 H          1.4450256867        3.3150619017       -3.1058208831
 H          2.4934425745        2.3383425883       -3.7208735450
 O         -0.1267738180        1.4433464440        2.8002867524
 H         -0.1015862901        2.4064084853        2.6049932064
 H          0.8029866775        1.1689391953        2.8159271161
 O         -4.1539590227        0.4100088324       -1.3214672698
 H         -3.3556690470       -0.0991316141       -1.1314682300
 H         -4.9217854779       -0.1458858795       -1.1151125382
 O          5.6629919234        3.2351941995        0.5723197740
 H          4.9900002514        2.5323191146        0.7129176460
 H          5.1962364310        4.0727231033        0.7030057109
 O          4.5683802236       -3.8159166733        2.3308592408
 H          4.6113067942       -2.9386893004        2.7653814630
 H          5.3885782446       -3.8786365332        1.8210321554
 O          2.7134349562        3.2612642170       -0.8802892344
 H          1.7572148974        3.4470331974       -0.8198774059
 H          3.1417536015        4.0317141957       -0.4680943853
 O         -1.6385915747        1.1625745063        4.9823756842
 H         -1.2478599722        1.6303789784        5.7189999454
 H         -1.0124188988        1.2308451594        4.2273900249
 O          5.9293155557        2.5210114775       -2.0832626220
 H          5.7621939866        2.9557671007       -1.2302242157
 H          6.3891110682        1.6892388574       -1.8606874244
 O          1.9964562681       -4.0647530445        3.6613461264
 H          2.8868125706       -4.1305646757        3.2985626846
 H          1.8000021840       -3.1200800031        3.7864311627
 O          0.1388372216       -4.9455623957        2.0006925406
 H          0.4238079153       -5.7667530167        1.5878097657
 H          0.8432467266       -4.6850343538        2.6416123952
 O         -3.4481427378       -1.7387540244        0.8249492426
 H         -2.8974434147       -2.4213689513        1.2448655592
 H         -3.1120280662       -0.8824088482        1.1531844027
 O         -3.9460219114       -0.6145833458        4.1127840831
 H         -4.5936341565        0.1154351116        4.1050854382
 H         -4.4358323707       -1.3611360871        3.7060363454
 O          1.5041554048        6.3275818217       -0.4081398943
 H          0.5950492348        6.5654501263       -0.2022186867
 H          1.4707273057        5.8931861169       -1.2785570661
 O         -4.5820156223        1.7677616091        0.9216038153
 H         -4.4572804582        1.3569221369        0.0334770581
 H         -3.7676056543        1.5071457607        1.3973616413
 O         -5.7845163916        1.2176899518        3.3070178931
 H         -5.4641523557        1.4309817161        2.4103706667
 H         -6.5742447961        0.6831955485        3.1548171614
 O         -0.3832373780       -1.2943748910        1.6494762825
 H         -0.8429827624       -1.6249905554        2.4235724554
 H         -0.1799064178       -2.0694427015        1.0790202100
 O          7.0301082527       -1.5295402491       -3.1600414779
 H          7.1636142502       -0.8803237375       -2.4378891384
 H          7.8188593654       -1.5132998792       -3.7021042383
 O          0.1272686082        3.6896326980       -0.3904891288
 H         -0.6868791497        3.1230309076       -0.3634769498
 H         -0.2295417864        4.5747200618       -0.5927476325
 O          2.4846438676       -1.0888397104        1.6049283791
 H          1.8097470060       -1.0927988370        2.3035602574
 H          2.4330417554       -1.9801139940        1.1979280080
 O          4.5864031465       -1.2433473692        3.1648495517
 H          3.8569522965       -1.0890093782        2.5031085205
 H          5.4059599877       -0.8856263798        2.7858498326
 O          1.4066022251       -3.6685925340       -2.2974611067
 H          0.9322864839       -3.5105295104       -1.4513721814
 H          1.5663561707       -2.7999156128       -2.7022207478
 O         -1.4503330558        5.8666620970       -0.3025930898
 H         -1.8280353898        5.6202747430        0.5516249857
 H         -2.1700915908        5.7212286302       -0.9346204676
 O          0.1773592624        0.3822879658       -4.7940463385
 H         -0.7675784671        0.2751491719       -4.6025892566
 H          0.4592454984        1.2341789304       -4.4289931300
 O          4.2119032315        1.9760025875       -3.9503902425
 H          4.5875984333        2.3813282803       -4.7322392516
 H          4.7953858744        2.2538449023       -3.1919615025
 O          3.6815503629        1.4406079041        0.6636473299
 H          3.2275947287        2.1362217932        0.1135741548
 H          3.2185798176        1.4016649583        1.5228555102
 O         -2.5740591946        0.4809405081        2.0823176992
 H         -1.6533254843        0.7315079138        2.2622021957
 H         -2.9589282000        0.1622276199        2.9248520585
 O         -6.6984936163        2.5821921261       -1.0452316709
 H         -6.4885047003        1.8571948366       -0.4466333209
 H         -6.4583335538        3.3924158340       -0.5770035883
 O         -4.8607626812       -2.4039824660       -3.4275184938
 H         -3.8962216856       -2.5596149410       -3.3785110565
 H         -5.1920230930       -2.6573839567       -2.5506577631
 O         -2.4361430597        2.3938451575       -2.7796565018
 H         -2.3298415663        1.4833835814       -3.1085050657
 H         -3.3922747700        2.5845769923       -2.9138151660
 O         -6.5787960843       -0.6035175827       -0.4811726287
 H         -7.0732460403       -0.3162732584       -1.2853644189
 H         -6.3557255044       -1.5431199759       -0.6044896239
 O         -5.0287546164        2.6897468954       -3.2000875733
 H         -5.1089357312        1.8203635927       -3.6138313856
 H         -5.6038857815        2.6569364150       -2.4103450191
 O         -1.5385637102       -1.8036367794        4.5924946996
 H         -2.2844098587       -1.1745251670        4.5352804359
 H         -1.5788769186       -2.1716161609        5.4758218673
 O         -2.1157711749        2.4265679726       -0.1755292468
 H         -1.9519189646        1.4697044767       -0.0667792733
 H         -2.3838545863        2.5123056085       -1.1194168583
 O          3.8427057973       -2.1664873231       -1.5604239313
 H          3.9204973145       -1.6423348534       -2.3791787642
 H          4.5484883965       -2.8491816249       -1.6526616240
 O          2.4718316944        4.4075973712        3.2387013676
 H          2.4840876232        5.0670235428        3.9324133470
 H          1.5456564253        4.3647419611        2.9036919601
 O          3.6500031983        5.1598176748        0.8298561364
 H          3.0056741081        5.7871808531        0.4576933048
 H          3.2978391997        4.9126732436        1.7019516278
 O         -5.2393666860        0.0169125925       -4.2639184139
 H         -5.1497680347       -0.9168394903       -3.9079265473
 H         -5.5090464427       -0.0780593426       -5.1783669471
 O         -3.6629381725        5.0507434419       -1.8257886507
 H         -4.1427122104        4.6283159293       -2.5441448587
 H         -4.1744979908        4.8293884490       -1.0212353113
 O         -1.3366639973        4.7425130323       -3.4619088453
 H         -2.0187328431        5.2860670123       -3.0556224670
 H         -1.6288165561        3.8227957250       -3.2973820857
 O          2.5633654138        1.6479315511        3.0845149800
 H          2.8735925396        1.1737545782        3.8695568910
 H          2.6440739230        2.5997663762        3.2564799080
 O         -7.5446491785        0.4200157796       -2.7090486991
 H         -7.5910951169        1.3452272219       -2.4434357063
 H         -6.7779881746        0.3344718797       -3.3016810357
 O         -2.5260195982        4.2620612671        1.8308546720
 H         -2.5045482585        3.5784632263        1.1333518113
 H         -2.9259930048        3.8262044121        2.6112531175
 O          7.0995433347        0.2496463015       -1.1525279617
 H          7.6676714432        0.6849223562       -0.5018889524
 H          6.3577779749       -0.1385173206       -0.6195011659
 O         -4.4220863893       -4.5978485125        1.4232551775
 H         -3.6122693842       -4.5221929493        1.9504369714
 H         -5.0484925690       -4.0241175700        1.8879597745
 O          7.8961761561        1.8180614780        0.9968756702
 H          7.1198853333        2.4062477137        0.8742738512
 H          8.6507696164        2.3907303614        1.1360637522
 O         -5.0396251337        4.3285059414        0.4036773995
 H         -4.7878324090        3.4026509116        0.6374837016
 H         -4.7244050429        4.8726777310        1.1282893991
 O          1.1772326747        5.0362132925       -2.8551753485
 H          1.5395282711        5.5746891276       -3.5589478774
 H          0.2016371214        4.9650788731       -3.0417153847
 O         -2.3976873014       -0.0905289454       -3.8577644198
 H         -3.3386666994       -0.0259535304       -4.0821011732
 H         -2.2806476492       -0.9632575215       -3.4426987133
 O         -2.2317089376       -2.6628709343       -2.8726640757
 H         -2.4079255587       -3.0826599879       -2.0089410597
 H         -1.6913421997       -3.3166552366       -3.3485021192
 O         -0.0829687300       -3.2598861886       -0.0736774013
 H         -1.0102894923       -3.4769521809       -0.3042116207
 H          0.1657572546       -3.9359872637        0.5904205354
 O          3.5490009409       -5.4636546714       -1.9704529926
 H          2.8989098304       -4.7853381430       -2.2128050145
 H          4.4224967365       -5.0682973668       -2.0361568128
 O         -0.9641128968       -6.1239335093       -1.3825522650
 H         -0.8203157506       -5.8431332840       -2.2970229929
 H         -0.0891959246       -6.1215002737       -0.9483000205
 O         -2.1051117540       -3.5347608737        2.4773661805
 H         -1.9715554273       -3.1145885274        3.3390465026
 H         -1.3455230707       -4.1279357178        2.3307603766
 O          5.1194318846       -0.7656696509        0.2313418829
 H          4.5518860342       -1.2852267645       -0.3905896039
 H          4.5745516716       -0.0163569788        0.5298344907
 O         -0.5473105569       -4.6426335325       -3.7577962610
 H          0.2494423871       -4.3187073909       -3.2638890644
 H         -0.2455162989       -4.9547934015       -4.6098810951
 O         -5.4330842204       -2.2465422737        2.5692979555
 H         -4.8335241612       -1.9840247582        1.8378078640
 H         -6.2404567345       -1.7190243440        2.4627094329
 O          6.6903034202       -2.9052786326        0.7937457464
 H          6.1670201379       -2.0822345938        0.7265583757
 H          7.4791869354       -2.6622413079        1.2795786269
 O         -5.2980342103       -2.9426534775       -0.7704833430
 H         -5.3801713302       -3.8163061441       -0.3760790471
 H         -4.5173169623       -2.5439998294       -0.3390633955
 O         -3.5237723962        2.8742094681        3.9008053904
 H         -4.4052450215        2.4867511567        3.8854852806
 H         -2.9401374865        2.2189729805        4.3243213034
 O          1.5151018514       -5.9995715398       -0.1628948208
 H          2.1679057076       -6.3291252273       -0.7915455620
 H          1.8579614252       -5.1193653964        0.0819356242
 O          1.2084491644       -1.4322132955        4.0184741825
 H          0.2834796304       -1.3871189685        4.2984781426
 H          1.7489961362       -0.8973172325        4.6150014696
 O          1.7569502233       -1.2712864236       -3.5366471191
 H          2.5985955656       -1.2481952837       -4.0088121152
 H          1.1174463710       -0.7415381756       -4.0809567477
 O          3.3370358835       -0.0177816401        5.1403692882
 H          3.8722045204       -0.5268633801        4.4794270096
 H          3.7767628887       -0.1129579569        5.9846585433
 O         -7.5280851268       -0.5326934127        2.0054190833
 H         -7.2275948113       -0.4764874008        1.0683920368
 H         -8.4624985496       -0.7377082765        1.9865974525
 O          7.1400245404       -0.4382964149        2.4041622608
 H          7.3599456265        0.3581134158        1.8904338786
 H          7.6740810459       -0.4076457024        3.1983046341
 O          5.9640869284       -3.7139646461       -1.7589583624
 H          6.3516696884       -3.6221476208       -0.8728431700
 H          6.4573859787       -3.1140173961       -2.3401941007
 O         -1.4973988820       -0.0639320913       -0.5231431335
 H         -0.6837041802        0.1664213146       -1.0234596065
 H         -1.1294768088       -0.4627040217        0.2850747222
 O          0.9000767208        0.4773693504       -1.5082382701
 H          1.2999816196       -0.2761044999       -1.9574185305
 H          1.2117162414        1.2604808809       -1.9867610665
 O          2.8940734652       -0.0386784254       -6.3066989887
 H          2.0354208205        0.1891405262       -5.9331611074
 H          3.4272554427       -0.3773668852       -5.5803476042
