  270
       -458.30351691
 O         -1.4553387703       -3.7942230119        2.0746715314
 H         -1.0905839644       -2.9084472422        1.8115012636
 H         -1.9783566224       -3.6114587233        2.8701189264
 O         -2.8547354925        0.0948257067       -1.0536004020
 H         -2.6734244047       -0.8532101368       -1.0826278006
 H         -2.1074899451        0.4524541968       -0.5348290040
 O          0.6428451732       -2.6018636503        4.4349709395
 H          1.3800621895       -2.1850603590        4.9204162856
 H          0.9495481672       -2.5949960703        3.5085612223
 O          0.2259440108       -2.7897052319       -3.3774327875
 H          0.7005005396       -2.1790327278       -3.9687172989
 H          0.3728301030       -3.7049555137       -3.6971819575
 O         -0.5056432199       -1.4386503883       -1.2422863392
 H          0.2886641403       -1.2879439875       -0.6899075091
 H         -0.2487314153       -2.1295303923       -1.8697026174
 O          1.8422995295       -0.7663798635       -0.2787543379
 H          1.8485250217       -0.2677361670        0.5554102164
 H          1.9998197188       -0.1324322056       -0.9984312317
 O         -2.4388710040       -2.8239086628       -3.3928774795
 H         -2.6527056662       -2.6124994631       -2.4710944865
 H         -1.4743893106       -2.6543610388       -3.4555211742
 O          4.4547399484       -1.0659409555       -0.1092493208
 H          4.3607016084       -0.0858604405       -0.0606135629
 H          3.5454069590       -1.3564742712       -0.3184866078
 O         -0.4758614424        2.9656500363        2.0382791096
 H         -0.9557397223        3.7355427164        1.6996787721
 H         -0.4892988808        3.0540485952        3.0156302709
 O         -0.4394480789       -1.4548309445        1.7025594067
 H         -0.3618648415       -1.0044005287        2.5533333014
 H         -0.6503779215       -0.7549695044        1.0609978126
 O         -5.0779684149        0.2268677475        0.3372768268
 H         -4.2254526692        0.2211871709       -0.1775973086
 H         -5.7623547334       -0.0071313242       -0.2952643623
 O         -2.0502833006       -5.4171295632       -2.8187523733
 H         -2.2900833247       -4.5274874241       -3.1538164368
 H         -1.4856097588       -5.2198284245       -2.0386851309
 O         -2.8208858887       -2.7539801913       -0.6040235744
 H         -3.4576917681       -3.4846050582       -0.6924292699
 H         -2.9758295968       -2.3270544063        0.2657011220
 O         -0.4110906088        0.5625342728       -2.8830758622
 H         -0.6500016601        1.3754104038       -2.3921799135
 H         -0.4921792801       -0.1822372120       -2.2155332625
 O          2.1890263475        2.9776942081        1.7606992798
 H          1.2137186962        2.9374886004        1.7982212510
 H          2.4892070116        2.8120129010        2.6668270177
 O          3.9256409763        1.5137141252       -0.0025599104
 H          2.9733953936        1.7491055113       -0.0565425838
 H          4.2573419496        1.8023396081        0.8660760872
 O          1.4427669471        2.0510468298       -0.7610039289
 H          1.2025775768        2.9557104327       -0.5110654022
 H          1.5879690166        2.1000274484       -1.7264623314
 O          1.8322475136        2.8270043670       -3.2495319092
 H          2.5199864542        3.4664617703       -2.9578546542
 H          2.1680749273        2.3347974579       -4.0238402893
 O         -0.7021987323       -4.4699488658       -0.7144567311
 H         -0.7576648062       -5.1513042500       -0.0181336475
 H         -1.3314064966       -3.7503821563       -0.5002166699
 O         -0.0961466341        0.4422414635        3.6279358914
 H         -0.9802751749        0.7876351187        3.4126274074
 H          0.1502568425        0.6968799928        4.5293287483
 O          2.2736345652        0.1389323475       -2.7482334736
 H          2.4409030701       -0.8217205605       -2.8156211939
 H          1.3514131073        0.2896683374       -3.0235116615
 O         -1.3164927656        2.7996298456       -1.7192594411
 H         -1.8191308882        2.6138709926       -0.9047862608
 H         -0.6705263419        3.4978864234       -1.4824374281
 O          5.2687348008        4.8526922025        1.7411085855
 H          4.4494377595        4.9513522261        1.1802458307
 H          5.9739872743        5.3001724752        1.2742246292
 O          2.6181086326       -1.1060004511        5.5400042816
 H          3.3294504353       -0.7870764289        4.9754136231
 H          2.1110259294       -0.3244698773        5.8054419972
 O          2.0824435307       -2.5269899258        2.1280322989
 H          1.9796330246       -1.5530965936        2.1069318537
 H          1.8567374151       -2.8178823181        1.2279867162
 O          4.4418040334       -4.6383655535       -1.7653644680
 H          4.8237574700       -4.6514054496       -0.8668278439
 H          3.9541528597       -3.8010342899       -1.8317738751
 O          1.7717550351       -3.5371876327       -0.4310346028
 H          2.0761716567       -3.0682229523       -1.2177275204
 H          0.8602669852       -3.8485131941       -0.6160846386
 O          2.3464217374        1.4203567777       -5.5107440122
 H          2.1742714127        0.4738964806       -5.3416300561
 H          1.4886529779        1.7538049047       -5.8182241062
 O          3.5564705495        4.5708801422       -2.2629780518
 H          3.3046380272        4.7724867185       -1.3391673550
 H          4.3619939269        4.0148083648       -2.1874706864
 O         -1.1182333884       -0.9777635651       -6.0706177270
 H         -1.2582064815       -1.9337446580       -6.2011838220
 H         -1.7867165717       -0.7014651186       -5.4177233754
 O         -3.9707236612        1.7525903812        4.7083516803
 H         -4.9208247120        1.8161625410        4.4479463421
 H         -3.4994272835        1.4370459482        3.8989667037
 O          1.3644765071        5.3881279030        3.7426511779
 H          2.2682714702        5.1241988299        3.9575651887
 H          0.7699607169        4.7223424000        4.1167481585
 O          0.3676075413        4.5393819679       -0.6755168736
 H          0.4857969113        5.4001200950       -1.1296614582
 H         -0.1363079199        4.7439454578        0.1195100101
 O         -4.4161630817        4.5589304142        1.6881721647
 H         -5.1223991559        3.8894635859        1.5749042687
 H         -4.4625481220        5.1418455092        0.9229470606
 O         -2.5846157537        0.9047759774        2.6223650631
 H         -2.7933250222        0.0017967907        2.3031789094
 H         -2.6971031802        1.4815270958        1.8440087422
 O          2.1077087714        0.1708913502        2.1845246360
 H          1.3226405182        0.4088902400        2.7118724576
 H          2.8985038694        0.2897879098        2.7353659711
 O         -1.4348767813       -3.6837887404       -5.9385291375
 H         -2.0809245397       -3.6207690897       -5.2260521060
 H         -0.7568811644       -4.2973884231       -5.6310370512
 O          5.2068557539       -4.5073827784        0.8492720856
 H          5.2226018924       -3.7180630800        1.4149996783
 H          4.4222096207       -5.0026348011        1.1331645932
 O         -1.5930915949        1.5233258942        6.1181348610
 H         -2.5117555678        1.6684026427        5.8492872319
 H         -1.4225067819        0.5746360712        5.9836912139
 O          0.5182228511        6.9726918294       -1.7395059887
 H          1.0274293740        7.5024674662       -1.1243564356
 H          1.0753467185        6.8271620745       -2.5482809824
 O          1.0822876556        6.6167591078        1.3515953414
 H          1.2067336747        6.2635128032        2.2550351082
 H          0.1425170571        6.5048264076        1.1740291556
 O          3.1031093893       -2.4027080632       -2.6936647273
 H          4.0077831725       -2.0775070332       -2.9134089371
 H          2.7982515880       -2.8567395184       -3.5058434493
 O         -4.2604764019       -4.9971447008       -1.2067585988
 H         -3.9887362031       -5.3852470603       -0.3508926160
 H         -3.6315569044       -5.3462580467       -1.8646629619
 O          2.2389129061       -6.1027320475       -2.5725530096
 H          3.0537611989       -5.6440327291       -2.3004857927
 H          1.9597217283       -6.6291767680       -1.8082260054
 O         -4.7061214221       -1.1883899778       -3.0182811803
 H         -3.9222878330       -0.6456375118       -3.2816043530
 H         -4.7006090184       -1.9276770184       -3.6288677630
 O          4.1535871023        4.9001670848        4.2125352240
 H          4.5778400852        4.9042131211        3.3311838319
 H          4.5516255883        5.6077010334        4.7187139006
 O         -1.2158595950       -1.2115306645        5.7428915877
 H         -0.6056023310       -1.6700483523        5.1129619336
 H         -1.0253338611       -1.5959987400        6.5984981802
 O         -2.9734649581        2.5550929630        0.4834767914
 H         -3.3046699406        3.3180422614        0.9854346512
 H         -3.6606126715        2.3672355536       -0.1819994136
 O         -2.7365023814        0.2071951644       -4.1234991959
 H         -1.9319538307        0.2319941092       -3.5554521271
 H         -3.0011378254        1.1352463954       -4.1949330133
 O         -0.6304493084       -6.6624786279        0.9332015769
 H         -0.2217353679       -6.3844704030        1.7637058591
 H          0.0726835079       -7.1051805750        0.4287438115
 O          5.3986961840        2.6675169486       -1.8680631646
 H          4.8183240786        2.2604326547       -1.1803674234
 H          5.2720719776        2.1044166500       -2.6517824968
 O         -0.1115639341        4.2300005865       -4.3162840250
 H          0.5342753338        3.6974302265       -3.7933461211
 H         -0.4333058928        3.6088745529       -4.9799151582
 O         -1.7847018272        5.7657801667       -2.8535876358
 H         -1.1800896434        6.4192116753       -2.4830245739
 H         -1.2127952147        5.1754724103       -3.3840320798
 O         -1.6043360410        5.3252191684        1.1469073351
 H         -2.0893836242        5.5646214511        1.9400163582
 H         -2.2662175964        5.2762788071        0.4189009663
 O          1.9057843321        6.1966827252       -3.8239104069
 H          1.2636008921        5.5795075084       -4.2063131124
 H          2.5964469848        5.6612127146       -3.4012740893
 O         -5.1568446362       -4.9393811472        2.9329440888
 H         -4.5539669529       -5.3740718079        2.3071645616
 H         -5.6961035654       -4.3263639884        2.4057011232
 O          0.6339396052       -5.1575753971        2.9829953595
 H          0.8953551234       -4.6991164661        3.7868891195
 H         -0.0990787990       -4.6044217580        2.6180564967
 O         -5.7233244115       -0.8519754597        3.1631736541
 H         -5.2288763628       -1.1042247152        3.9546478907
 H         -6.0612708309       -1.6548294318        2.7403174485
 O         -6.4276509692        1.7001219456        3.7280460028
 H         -6.3522558181        0.7499092198        3.5250126079
 H         -6.4249569706        2.1367990961        2.8650172135
 O         -6.4725530134        0.5865437333       -2.0800713738
 H         -5.8460404554       -0.0573631947       -2.4747641010
 H         -7.2696191525        0.5518503213       -2.6069677467
 O         -3.1096814706        4.3076714051        4.1205181661
 H         -3.6304166398        4.4921831828        3.3277495709
 H         -3.4801945103        3.4772529514        4.4744098439
 O         -6.5119932513       -2.9611298213        1.5534461381
 H         -6.2081125059       -2.8082223695        0.6278129865
 H         -7.4586849092       -3.0894147407        1.5007261437
 O         -5.8540359298       -2.7556119186       -1.0051006700
 H         -5.3477778278       -2.1259594292       -1.5410813662
 H         -5.4692601261       -3.6277599723       -1.1839681999
 O          5.1378049677       -4.1380975202       -4.4173994918
 H          5.0433397938       -4.5303741382       -3.5330886384
 H          5.4723160959       -3.2425618037       -4.2660020897
 O          2.6353554924       -5.4778168074        1.1840015017
 H          2.0056040487       -5.3477398166        1.9226949772
 H          2.4127476755       -4.7693376844        0.5426338142
 O         -3.0393045263        2.9473117339       -3.7014531128
 H         -2.3153746391        2.9255327017       -3.0266259910
 H         -2.9953961893        3.8193698572       -4.0958793224
 O         -4.7405395449        2.7136551012       -1.5948640474
 H         -4.2040690228        2.7170086184       -2.4106450850
 H         -5.3770007870        1.9919347758       -1.7120106056
 O          3.0439769503        5.0078645436        0.3728406159
 H          2.3993090271        5.6977643319        0.6250885185
 H          2.7037215030        4.1937069264        0.8279838781
 O          3.0075806654        2.4372046944        4.3493052808
 H          3.5360426748        3.2380852243        4.4775936853
 H          3.6211283441        1.6965930272        4.2393485681
 O          1.1938250943        1.2299160637        5.9366106343
 H          0.6015600752        1.7507336265        6.4819703261
 H          1.7701781514        1.8380142573        5.4365525304
 O          5.5040776122       -1.5158686406       -3.4441873217
 H          6.1304370593       -1.4307794839       -2.7030993614
 H          5.2841080116       -0.6014842885       -3.7057589115
 O          1.4028441884       -1.1343103389       -5.1798557876
 H          1.8674388681       -1.8887440661       -5.5639536190
 H          0.5283572615       -1.0485202464       -5.6216967906
 O          7.1631052987        1.4357275422       -0.0852992497
 H          7.1958566180        0.5276788793       -0.4204918926
 H          6.7385888554        1.9583356043       -0.7871927519
 O         -6.0770653068        2.5397105386        1.0954031344
 H         -5.6291284261        1.6743219020        0.8908072725
 H         -6.6208434809        2.7354824239        0.3322603548
 O          1.7149780387       -7.4834912691       -0.2111474510
 H          2.1419575943       -6.7668714446        0.3365828234
 H          2.2412500247       -8.2729472329       -0.0922158870
 O         -3.9404807471       -0.9479786024        5.3912156085
 H         -2.9812514913       -1.0552326143        5.5172829931
 H         -4.0718874698        0.0125691338        5.2978723459
 O          0.3157095125       -5.3074860224       -4.2247990681
 H          1.0189016292       -5.6809682523       -3.6487906041
 H         -0.5226750509       -5.5996426784       -3.8185217240
 O          2.6127783549       -3.6293613256       -5.0681925327
 H          2.0877991866       -4.4344725870       -5.0520800631
 H          3.5572763931       -3.9075044172       -5.0049683727
 O         -0.3725709215        1.7172416438       -5.4911880412
 H         -0.7238120684        1.0163655716       -6.0488603738
 H         -0.3411594860        1.3381669749       -4.5967449075
 O          4.4618288041        0.1830273008        3.5735279228
 H          4.6739789260       -0.7141772628        3.2173028286
 H          5.0238106123        0.7952283399        3.0671509727
 O          5.6029785070        2.0967424608        2.0080897103
 H          5.5758147353        3.0662141320        1.9937836178
 H          6.2741869973        1.8302921948        1.3415798731
 O         -0.6819918081        0.8689370350        0.3529239508
 H         -0.7555082044        1.5107857851        1.0776727562
 H          0.1184276669        1.1485909837       -0.1286236716
 O         -3.4335163673        5.1703119477       -0.8356113720
 H         -3.9112386425        4.3766263637       -1.1133658539
 H         -2.8821217436        5.4253405506       -1.6055867606
 O         -0.5907999671        3.5357368254        4.6176872120
 H         -0.8401232835        2.7934410917        5.2038697351
 H         -1.4297040753        4.0215252450        4.4960970774
 O          4.7118713200       -2.1508227877        2.3024204106
 H          4.7254746243       -1.7197227197        1.4195575592
 H          3.7779171356       -2.4456063003        2.3973117393
 O          6.8802946449       -1.2342912262       -1.0967490162
 H          7.3344024400       -1.9909125268       -0.7247579835
 H          5.9728049926       -1.2415970582       -0.7113651384
 O         -3.1664279400       -5.6429960917        1.1472807284
 H         -2.5426217620       -6.3765816948        1.0829013239
 H         -2.6031923806       -4.8870914820        1.4263985048
 O         -3.4020244558       -1.4817568514        1.6796407403
 H         -4.2799703602       -1.0805427602        1.5703878299
 H         -3.4408874992       -2.0816370019        2.4533876414
 O          4.5394726418        0.9921499791       -3.8378986934
 H          4.2533161925        1.2867894700       -4.7074465169
 H          3.7034995916        0.7452079320       -3.3737965825
 O         -3.4345184098       -3.1425699659        3.7861090082
 H         -3.7213844290       -2.5986511335        4.5295138143
 H         -4.1086641199       -3.8465769105        3.6319315178
