  251
       -422.17796761
 H          4.4694925508        0.1566807438       -0.2715822435
 C          3.5655130381        0.3238716783       -0.8529066306
 H          3.2560392928        1.3639803911       -0.7196668425
 C          2.4529051045       -0.6206650334       -0.3887176859
 H          2.6196348952       -0.8855522948        0.6515936745
 H          2.5023330458       -1.5334407663       -0.9856528385
 N          1.1059404156       -0.0754308565       -0.5006390047
 H          0.9986684099        0.6862890365        0.1568371898
 H          0.9540971339        0.3004470723       -1.4295268151
 O          3.9216642795        0.0898290594       -2.2119617233
 H          3.1438070203        0.3194024981       -2.7791852106
 O         -4.0978250468        1.7475413846       -2.5368799536
 H         -4.4839002576        0.9670160306       -2.9647846753
 H         -3.1514430400        1.5088099067       -2.3943356443
 O         -0.7039214755        2.5147590054       -0.3943391738
 H         -1.5771742656        2.4520854707        0.0611448245
 H         -0.0360279284        2.3533395297        0.2908563136
 O         -0.3930212235       -2.1132234086        0.2301582928
 H         -0.5422291974       -2.0470909805        1.1892987027
 H          0.0961461054       -1.2871560396       -0.0435858659
 O         -4.4089335683        0.3368400311       -0.0245107648
 H         -3.8639301689       -0.4646097265        0.0719402048
 H         -4.8631726552        0.4686385261        0.8259221634
 O          0.4716717384        3.8635415244        3.3388212576
 H         -0.1252253204        3.4944526561        3.9962267806
 H         -0.0251165986        4.5840663579        2.8762874420
 O         -3.9764392133       -3.4203963102        3.6267500314
 H         -4.7155604622       -2.9426955439        3.2220123392
 H         -3.6568294231       -2.8539935777        4.3458651166
 O         -1.0164827262        5.6173660447        2.0442914424
 H         -0.9582477751        5.5941256122        1.0818851966
 H         -1.8705002514        5.2172549087        2.2830127528
 O          2.7347073945       -2.2546248909        3.5509408546
 H          2.6649909539       -1.2922076334        3.4332963475
 H          2.5471964545       -2.6320834087        2.6691759245
 O         -3.1929262679        2.6940651908        0.4313716329
 H         -3.6737362320        1.9078022436        0.1145567894
 H         -3.4841509721        3.4860119899       -0.0692211803
 O         -2.8469433259       -1.3716840354        5.0483757304
 H         -3.2171836353       -0.6186856612        5.5156389148
 H         -1.8616976489       -1.3020195139        5.1207370389
 O          1.0629818444       -1.8746173509       -3.1005943304
 H          1.2918775354       -0.9327063885       -3.0836902383
 H          1.8859122388       -2.3597417110       -3.3292233202
 O         -0.9178413641        4.0988146317       -3.6037605376
 H         -1.1066396719        3.4020692314       -4.2490497338
 H          0.0051546362        3.9302689247       -3.3472118420
 O         -1.2249128096       -3.1635805142        2.6449409560
 H         -0.5576256549       -3.3424901805        3.3415205385
 H         -2.0930770211       -3.2803770941        3.0471930752
 O         -0.6227170304       -4.2853713247       -1.4319577342
 H         -0.5654323910       -3.3882677665       -1.0607465721
 H         -0.7041184690       -4.8480470061       -0.6318553203
 O          3.1113312188       -3.0586516576       -4.2780070272
 H          3.2860016042       -2.2152116022       -4.7469437090
 H          3.8648757059       -3.1357067893       -3.6711468543
 O         -3.0824486744       -2.0438904908        0.1008035908
 H         -2.1181550981       -1.9716979524       -0.0454298956
 H         -3.2055841313       -2.9103977164        0.5354848832
 O          0.6953528006       -3.7978792171        4.4287714355
 H          1.4731042061       -3.2341594730        4.2467798050
 H          0.9173686494       -4.6376952668        3.9879434069
 O         -6.0980083880        3.0084839357       -1.3181528186
 H         -5.3519136143        2.4467022123       -1.6222017912
 H         -6.2435238438        3.6376222722       -2.0261124712
 O          2.7981801371        0.3960784981        2.7174540025
 H          2.9781376372        0.9815467256        3.4879304313
 H          3.6677797704        0.1803658264        2.3297234444
 O         -2.8228794782       -4.3716818727       -3.0654725422
 H         -2.5520552191       -3.9080275789       -3.8683256368
 H         -2.0376915728       -4.3901754979       -2.4796898246
 O          1.9241608053       -3.2687172027        1.1761499598
 H          2.5065387000       -3.5229666833        0.4352965479
 H          1.0904956130       -2.9397157681        0.7923154066
 O          6.2691735451       -2.0160362915       -0.0049011988
 H          6.3890819198       -2.7584529698        0.6453314968
 H          5.7564637727       -2.3654674592       -0.7502563013
 O          4.2402186806       -5.5036871439        1.4633757770
 H          3.9634307823       -5.1643750743        0.5989733527
 H          3.4312613995       -5.6965916792        1.9538275381
 O         -1.4604941655        1.1475871762        2.0066496495
 H         -2.2816164205        0.6301573416        2.0060612883
 H         -1.4557402175        1.6240854441        2.8563134162
 O         -0.2218747400       -1.1912238973        5.0495199514
 H          0.1005715896       -2.0769792358        5.2458902533
 H         -0.0390418824       -1.0588087024        4.0762366837
 O         -4.8729621921       -0.5717496420       -3.7469556138
 H         -4.5783279975       -1.2951759152       -3.1403962445
 H         -5.8153932060       -0.7099797740       -3.8753807038
 O          3.1383903202        2.0187543992        4.7736161938
 H          3.1964978392        2.9377392966        4.4936112704
 H          2.2496828014        1.8820071273        5.1661311333
 O          6.1362960589        0.2475055162       -4.8588129909
 H          6.2360263600        0.9300337330       -4.1787507993
 H          6.6562527246       -0.5014466361       -4.5348715062
 O          1.6159356897        0.8177277693       -3.3183534875
 H          1.4920021901        0.7191714291       -4.2908608628
 H          1.6016005306        1.7848019793       -3.1683927943
 O          5.0194658591       -2.3869887930       -2.4389946956
 H          4.6076348637       -1.4954480327       -2.4058299789
 H          5.8827865685       -2.2531520960       -2.8704015020
 O         -4.4669403594       -2.6133358799       -2.0662660520
 H         -3.8917468433       -2.2684421603       -1.3374687238
 H         -3.9084246933       -3.3276480856       -2.4766454142
 O          0.6470745922        1.3863697397        5.5620199655
 H          0.4695501547        0.4322190470        5.5365427845
 H         -0.1697403938        1.8011466224        5.2565276774
 O          7.5049748677       -1.7153379000       -3.3561097920
 H          7.7700448749       -1.1443573367       -2.5943474098
 H          8.2398786414       -2.3019367639       -3.5321813321
 O         -5.6138798843        3.4233192623        3.2086357812
 H         -5.8481241271        4.0228171331        2.4724426858
 H         -5.7205375382        2.5333572195        2.8243755615
 O          5.4567520801        0.3939095423        5.0675640384
 H          6.0006914709        0.8725684977        4.4270595010
 H          4.6490352045        0.9167090497        5.1622482611
 O         -4.1429444697        1.2803608085        4.7355774749
 H         -4.7084903454        2.0448308701        4.5914114553
 H         -4.1090686241        0.7984222027        3.8847486659
 O          1.3430045371        2.3010744534        1.3740836171
 H          0.9620698735        2.7554229363        2.1550299467
 H          2.0634966926        1.7421433822        1.7176930907
 O          1.7035480774       -5.0460907815       -2.5882699380
 H          1.8687245030       -4.5595191364       -3.4003598083
 H          0.8226342344       -4.7800308365       -2.2495101022
 O         -3.5522392735        5.0886210505       -0.6638695334
 H         -2.6115911545        5.3196370384       -0.6070857442
 H         -3.7151555051        4.9291273602       -1.6221865377
 O         -1.5705184782        1.0168740336       -2.4311511491
 H         -1.1230530803        1.4725072073       -1.6941183792
 H         -1.5579782572        0.0434299668       -2.2761693520
 O         -5.7110672210       -2.0260921284        1.9073858006
 H         -5.6472568506       -2.7013978292        1.1984708050
 H         -6.5450030424       -1.5785813447        1.7175584946
 O          6.1892069857        1.5120793118       -2.3664049594
 H          5.3501303248        1.0120175441       -2.3612611951
 H          6.0036509889        2.3035446641       -1.8140939351
 O          7.8381229192       -0.1706026325       -1.1852864192
 H          7.2303915642        0.5019200470       -1.5917752537
 H          7.2843840737       -0.7960489456       -0.6730858118
 O         -5.9292756199       -3.8001754597       -0.0985431354
 H         -6.8757081433       -3.7100230923       -0.2787332594
 H         -5.4487604075       -3.4212875554       -0.8650389475
 O         -7.1485026888       -2.1037901340       -2.7449835700
 H         -7.0113387219       -1.2340566211       -2.2815851026
 H         -6.2965540349       -2.5562565734       -2.6648092034
 O         -0.7477333088        5.1093714059       -0.7687163564
 H         -0.7222167661        4.1172708996       -0.6966812736
 H         -0.6874970347        5.2841509681       -1.7120907659
 O         -1.7209220941        2.4300212599        4.4170504423
 H         -2.1637481237        3.1394558705        3.8874980251
 H         -2.4755273626        1.9300352283        4.7823613593
 O          1.7506878564        3.4908348366       -3.2620137106
 H          2.3669641938        3.9890378805       -2.6464392982
 H          2.0489501603        3.7088283212       -4.1461044996
 O          0.4432437722       -2.1278500812       -5.6639614391
 H          0.6228511878       -2.0425159445       -4.6926349027
 H          1.0954157265       -2.7462819579       -5.9957909086
 O          3.5744621464       -0.5649782809       -5.0623515457
 H          3.0742724371       -0.0142225709       -5.6696411600
 H          4.4993707451       -0.2406739129       -5.0578567046
 O          4.2977301790        2.5702730648        1.5508312265
 H          3.8900598150        3.2666008785        2.0987265153
 H          5.0996375853        2.2872189974        2.0233104925
 O          3.3605446582        4.8211957562       -1.7457072330
 H          4.1856195593        4.3748656513       -1.4808029016
 H          2.8663427757        4.9593153424       -0.9109027605
 O          7.6174248168        3.9167345793        0.8508005306
 H          8.0885687770        3.0725008486        0.7501785843
 H          7.2853452133        3.9251952453        1.7516873386
 O         -1.2647453591        1.6609153285       -4.9973187534
 H         -1.9950627012        1.1710760631       -5.4017115952
 H         -1.2875540439        1.4029906271       -4.0483489124
 O         -3.0432455759        3.9650901147        2.7613830145
 H         -3.9745151942        3.9195273576        3.0613716220
 H         -3.0297852371        3.4282640690        1.9388111722
 O          3.0748777163        4.5024902461        3.0528387109
 H          2.1417973079        4.3151298710        3.2681726606
 H          3.0188040905        5.1247232154        2.3195333694
 O          1.8472080821        4.8617574517        0.4683823347
 H          0.9873980196        5.1356161913        0.1209046963
 H          1.7601563236        3.9168280226        0.6970638576
 O          6.5643030304        1.4941495363        2.6684800449
 H          6.0892443547        0.6765142388        2.3872367703
 H          7.3916591102        1.4747009625        2.1683719642
 O         -3.3273798881       -0.0222829476       -5.8434248922
 H         -3.8904412445        0.1260351442       -6.6024712057
 H         -3.9138703999       -0.1425259816       -5.0639743540
 O         -8.0735758943       -0.9042432067        0.8827228826
 H         -8.3776478942       -1.6844074549        0.3812883484
 H         -8.7826134096       -0.2584355470        0.8898546174
 O          6.3153352773       -3.7910940414        1.9133584875
 H          5.6242195006       -4.4739771054        1.8092631529
 H          6.1349027645       -3.3556909221        2.7573637766
 O          1.4602937624       -5.5679885839        2.4746565054
 H          1.6291606575       -4.7192713042        2.0101682531
 H          0.6888780638       -5.9312381401        2.0247246088
 O         -2.1608994783       -2.3874278128       -4.9523659662
 H         -2.5899806761       -1.6238809895       -5.3666486642
 H         -1.2663227059       -2.4116697646       -5.3329240011
 O         -0.9653843457       -5.3119189045        1.0187012126
 H         -1.9041603388       -5.5183342870        0.9468285264
 H         -0.9597678624       -4.4816378569        1.5477935338
 O          8.7025670028        1.3579796071        0.8413714456
 H          9.6316511223        1.1856278104        0.9918019207
 H          8.4336642461        0.7961956269        0.0756485767
 O          5.1499140582       -0.6068635105        1.9273935170
 H          5.2770121064       -1.2147725413        2.6974567448
 H          5.5278265096       -1.0860725158        1.1631094336
 O          0.2954167111       -0.7089735731        2.5351285673
 H         -0.3488106307       -0.0110036300        2.2686881755
 H          1.1631992811       -0.2831192208        2.5254689905
 O          5.3761010680       -2.1472098975        4.0595471574
 H          4.4245066694       -2.3686844054        4.0749780527
 H          5.4835106506       -1.3720363835        4.6423988735
 O         -6.6916387431        0.0576205088       -1.3547872216
 H         -5.7679619556        0.1771026859       -1.0442334991
 H         -7.1949158197       -0.1323282910       -0.5489752761
 O          5.4438844348        3.4356366727       -0.6830973457
 H          6.2554820394        3.7998410712       -0.2822810284
 H          4.9381719034        3.0731243027        0.0838606758
 O         -7.9203926968        2.0695392277        0.4893920611
 H         -8.0425005260        2.9537888075        0.8432469160
 H         -7.3744764975        2.1863538135       -0.3128742838
 O         -3.5953389895       -0.4026997013        2.6465205489
 H         -3.1758142790       -0.8860835998        3.3836312877
 H         -4.2671343222       -1.0009033856        2.2810634331
 O         -6.0739524789        0.9903553855        2.0751461347
 H         -6.8025997229        1.3093603338        1.4929320779
 H         -6.4367525653        0.3071470774        2.6394062515
 O         -3.6007687624       -4.5508326357        1.1273091185
 H         -3.7319057983       -4.3715979974        2.0699114277
 H         -4.4761745961       -4.6363675709        0.7307221750
 O         -8.5479581070       -3.0454709651       -0.7541404856
 H         -8.1190972567       -2.7117665949       -1.5925251800
 H         -9.3155147786       -3.5519180127       -1.0166540555
 O         -1.5630918938       -1.6027255623       -2.3927706618
 H         -0.6185760003       -1.8057358844       -2.4416647785
 H         -1.9195876905       -1.8723317299       -3.2589412833
 O         -3.6803312480        4.3511444574       -3.2094682775
 H         -2.7349661600        4.4132173950       -3.4114765584
 H         -3.8532650899        3.3977963148       -3.1014067301
 O          3.4435744470       -4.1125728092       -0.8500582924
 H          2.8241503301       -4.5680902920       -1.4711106105
 H          4.0635348138       -3.6169762371       -1.3971118047
 O          1.0272929121        0.5729196035       -5.8973451157
 H          0.7677328203       -0.3572808936       -6.0078407614
 H          0.1922203094        1.0581807970       -5.7257689073
 O         -5.9128447932        4.6872595687        0.8423637493
 H         -5.9870874100        4.0320877099        0.1253958641
 H         -5.1194297991        5.1858804523        0.6119873018
