  144
       -244.35478591
 O         -2.2754799510       -3.6971420203       -0.9709203069
 H         -2.6089489981       -4.5267144751       -1.3142360626
 H         -2.6262231431       -3.6299258386       -0.0543743611
 O          1.7476962661       -1.5518517583       -0.3001208160
 H          2.6146358620       -1.7233336430       -0.7064444548
 H          1.1743927072       -2.2802954390       -0.6181119044
 O          1.6475744651        0.0060083514       -4.0664663983
 H          0.9488572185        0.0656329709       -4.7386023032
 H          1.2460804885        0.2767079212       -3.2154264077
 O          1.5585079125        0.8448313905        4.5689090586
 H          1.7720160749        1.7687101993        4.3407935303
 H          0.6052079680        0.7732614020        4.3833180124
 O         -6.1514948596        0.3012660167       -2.5857787065
 H         -5.8907203849       -0.5777753441       -2.9003107877
 H         -5.3396430049        0.6829858183       -2.2099032615
 O         -1.0176393052        0.9699186001        3.5813132571
 H         -1.0244257611        1.9389953441        3.6543604232
 H         -0.5281386775        0.7609008172        2.7024648495
 O          4.8690476454        3.6947917496        1.5432004010
 H          5.2102261222        2.8648245307        1.9605382317
 H          3.9684494039        3.4356809447        1.2422014895
 O         -2.6967699004        3.3039607096        1.5304600827
 H         -2.9474963639        2.4122961538        1.8143824888
 H         -2.0489388409        3.6019315574        2.1861594046
 O         -0.7676222509       -2.5968529996       -4.5917952882
 H          0.1241568968       -2.8158106607       -4.2882077122
 H         -0.6616362983       -1.8025026555       -5.1415975476
 O         -2.5634887529        0.6767909827       -4.2823753737
 H         -2.5612533802        1.5160729985       -3.7923417854
 H         -2.6144544286       -0.0279687816       -3.6188198391
 O          0.4283340337       -3.6445828896       -1.3271479201
 H          0.7577873249       -3.4269873905       -2.2168774284
 H         -0.5433961216       -3.6082081134       -1.3299687474
 O          0.4026982433       -4.5712352073        1.2571896167
 H          0.5695298534       -4.5050105755        0.3059490827
 H         -0.3645995721       -5.1654773832        1.3609039121
 O         -1.2152386219        4.1267802610       -0.7831663105
 H         -1.7196844153        3.9223376940        0.0197898571
 H         -1.7462063573        3.7804041671       -1.5181473993
 O         -3.0339997161       -0.9340258871        0.2989152754
 H         -2.3155042962       -1.5109556952        0.6275633814
 H         -3.8139834188       -1.5067293118        0.1202965563
 O          1.3653165155       -2.0063516050        4.6778006300
 H          1.7324397770       -2.2365065947        3.8033710179
 H          1.6439970464       -1.1016202163        4.8634525344
 O         -1.0381643631       -2.2761733541        1.4848519017
 H         -0.5113029990       -3.0924341067        1.3880177617
 H         -1.1456110673       -2.1475391973        2.4489330538
 O          3.9097958587        4.8311802833        3.7686656372
 H          4.5007552777        4.5635221721        4.4735171736
 H          4.3517784573        4.5667425371        2.9281249712
 O          4.0141231025        1.0419513293       -3.1764169836
 H          3.2334980935        0.7032361449       -3.6460570893
 H          3.9558701737        2.0088838320       -3.1718801065
 O          3.9082764648       -2.5360941456       -1.6696736375
 H          4.3333902394       -3.3073636867       -1.2954939756
 H          4.6345755828       -1.9294774765       -1.9701394652
 O         -4.0023066146        1.1620023423       -1.0965050721
 H         -4.5358218937        1.4941049060       -0.3450214163
 H         -3.5260370329        0.3834011152       -0.7563014466
 O         -4.9782115693       -2.1721403190       -3.1204468961
 H         -4.0253643608       -1.9176415879       -3.0451008683
 H         -5.0780303180       -2.6291794794       -3.9547794826
 O          3.7147283911        3.7214585897       -2.5877525162
 H          2.8297752035        3.6819918946       -2.1690698701
 H          3.7854816391        4.5806175882       -3.0031887418
 O          5.8917832076        3.1068950259       -0.8831805557
 H          5.6083289729        3.4804438597       -0.0208770900
 H          5.1610145754        3.2686715481       -1.4987427349
 O         -1.9669933434       -5.8849989432        1.5629196989
 H         -2.0746268337       -6.2865802383        2.4255026709
 H         -2.6316365944       -5.1724353679        1.5109951644
 O          2.2080973948       -2.6065664417        2.1363384973
 H          1.7611854356       -3.4591732177        2.0590017475
 H          1.9961693988       -2.1453603559        1.2950487053
 O         -5.3874475458        1.9299602273        1.0986428839
 H         -5.1916379964        2.8562455382        1.2587507592
 H         -4.8578000013        1.4265492722        1.7437902898
 O         -0.7922985210        3.7084724545        3.5322035915
 H          0.1863180477        3.6192710225        3.4049908991
 H         -0.9147516241        4.3393254675        4.2412756574
 O         -3.8025346720       -2.1107641494        3.3995326247
 H         -3.9616764514       -1.1858543906        3.1669423590
 H         -2.9419203502       -2.1251621895        3.8475233126
 O         -6.9457452182       -0.2610705074       -0.0610965692
 H         -6.6271752036        0.4965229355        0.4412560041
 H         -6.8739679880       -0.0036136461       -1.0052701346
 O          6.4666830532        0.6629156022       -0.1889161614
 H          6.2500116206        1.5876087242       -0.5119889819
 H          7.4190576842        0.6425148853       -0.0905574904
 O          3.0495723185        0.1127159937        2.4096776308
 H          3.0521360005       -0.8483450433        2.3631964695
 H          2.5488097893        0.3454294813        3.2152964446
 O         -2.4106211069       -1.6244285993       -2.7345073265
 H         -1.8288831609       -2.0285816096       -3.4205104642
 H         -2.3594688644       -2.2189484005       -1.9658685470
 O         -3.4319509461        0.6011174221        2.4279246069
 H         -3.2421525375        0.0191625452        1.6523746928
 H         -2.5981831190        0.6638622997        2.9405634074
 O          1.3025650177        3.3952429730       -1.4595132858
 H          1.1434244623        2.4434277173       -1.6109172221
 H          0.4306963311        3.7895316811       -1.2510798870
 O         -0.5181425394       -0.0722508523       -5.7312083282
 H         -0.6787927731        0.1652629397       -6.6437274131
 H         -1.2939034360        0.2663664021       -5.2090726705
 O          2.5308440922        2.6636559345        0.8127899432
 H          2.8740640877        1.8063934205        0.4761667624
 H          2.0849458127        3.0791650047        0.0500322551
 O         -2.8302274702        2.8974558491       -2.6695607380
 H         -3.5219756751        3.4522398638       -3.0324806660
 H         -3.2719642273        2.2853455220       -2.0293054410
 O          1.7921366099        3.2459846047        3.3443835908
 H          2.0078417272        2.9510723644        2.4365809150
 H          2.4850560270        3.9015227201        3.5733331592
 O         -1.2057655368       -1.7307975219        4.1304434476
 H         -1.2146834860       -0.7634967585        4.1413140913
 H         -0.3014210153       -1.9768160628        4.4391778474
 O          1.7960258767       -2.6360392336       -3.4652276342
 H          2.6042155759       -2.7465329981       -2.9373120726
 H          1.8103537927       -1.6919192859       -3.7268157630
 O          5.8125090405       -0.8692035695       -2.3872717597
 H          6.1182374151       -0.4012847456       -1.5894757468
 H          5.3133408715       -0.2065226096       -2.8903097120
 O         -5.2559861391       -2.2965246358       -0.3269011142
 H         -5.9489675587       -1.6266532619       -0.1174058459
 H         -5.2687671163       -2.3829533872       -1.2910795240
 O          3.5632750035        0.5829172567       -0.5200433199
 H          4.4073583330        0.3177302827       -0.1489048234
 H          3.7179809416        0.7521794072       -1.4694562732
 O         -3.6786500230       -3.7749488370        1.3196092476
 H         -4.4728736099       -3.5111452695        0.8302494637
 H         -3.6822359792       -3.2014310904        2.1216580922
 O          5.4879233859        1.2668989095        2.3919558957
 H          5.8910880213        0.9060568090        1.5892339329
 H          4.5999177556        0.8531273008        2.4492913045
 O          0.1889073288        0.1951417599        1.3818051070
 H          1.1552459091        0.1855402223        1.4124845539
 H         -0.1109199932       -0.7259963567        1.2526376625
 O          0.7539774501        0.7288274716       -1.5228362344
 H         -0.0589866213        0.7166864265       -1.0091523479
 H          1.3673112033        0.1438619476       -1.0340473396
 O          5.3264460245       -1.4659570187        1.2553697017
 H          4.5437261946       -1.9893132101        1.4375484775
 H          5.5917149041       -1.0454022284        2.0768005592
