  101
       -167.54392802
 H          0.8670122256       -1.7321190807       -1.0773666160
 C          0.8025635835       -0.9322104575       -0.3301574748
 H          0.7496705453       -1.3813157300        0.6638794392
 C         -0.4300040839       -0.0726535296       -0.6106747350
 H         -0.3413085654        0.3441680138       -1.6147665579
 H         -0.4642752064        0.7458764291        0.1065556534
 N         -1.6906598582       -0.7962406565       -0.5435182610
 H         -1.6565925885       -1.5839864474       -1.1818181404
 H         -1.8335344193       -1.1551997235        0.3935009692
 O          1.9838994428       -0.1523534728       -0.3507762564
 H          1.9178573048        0.4972329719       -1.0909538774
 O          4.5916645506        2.9081840083        1.0180857084
 H          5.1374307277        2.1397316839        1.2505587374
 H          3.6941858348        2.6457158269        1.3114529907
 O          4.3129898857        2.6892977228       -1.5694063310
 H          4.7757705562        3.4280724468       -1.9636484536
 H          4.3935584902        2.8096214358       -0.5776057622
 O          3.4815621386       -3.1051105712        0.6737826088
 H          2.6206429340       -3.5030290996        0.4739455580
 H          3.8169241042       -2.7746474804       -0.1717602332
 O         -3.5429100194        0.6391390266       -1.8773532590
 H         -4.4031595532        0.3032395114       -1.5920297482
 H         -2.8755500868        0.1791946936       -1.3079989554
 O         -3.7982320011       -1.0721233628        2.9801121731
 H         -2.8244524933       -1.1478227345        2.9466736893
 H         -3.9919951848       -0.1161911943        2.9615834257
 O          1.2295676138       -0.7842882005        3.8726973080
 H          1.5438685341       -1.3249153185        4.5972360336
 H          1.9610279697       -0.7723579469        3.2060907068
 O         -1.1270319162       -1.1949843278        2.5432832119
 H         -0.3392609591       -1.0583389330        3.0999886067
 H         -1.0618023510       -2.1298835642        2.2374365729
 O         -5.5244803338        2.1765011759        0.6752229505
 H         -4.9452723091        2.6873005731        0.0582830253
 H         -5.7204890100        1.3497365708        0.2111465083
 O         -0.5172053149        2.7116764316       -2.5794297438
 H         -0.6737447932        3.5609862195       -2.9934762825
 H         -0.8510338599        2.7992712661       -1.6583291222
 O          0.6685511491        1.9193149269        3.6486885546
 H          0.8328975242        1.0039071715        3.9247211789
 H         -0.1909885782        1.9096047662        3.1906675362
 O         -4.8543289914       -2.2737742234        0.9721695882
 H         -4.4041378445       -1.7832137559        1.7347095786
 H         -5.5129725748       -2.8261753710        1.3960056455
 O         -3.0093321577       -3.7377014858       -0.3673667457
 H         -3.4607108654       -4.5752430240       -0.4819318935
 H         -3.6520152448       -3.1267551394        0.0516043984
 O          1.0763649669       -4.3610574126       -0.0501485646
 H          1.3136450647       -5.2888874136       -0.0671701302
 H          0.5032274733       -4.2107452265       -0.8467503180
 O         -3.7927759422        3.2156788091       -1.0593195023
 H         -3.6648930094        2.3497479502       -1.4970496389
 H         -2.9439041888        3.4170832948       -0.6419234539
 O         -1.5504692737        1.5159524523        2.0909880985
 H         -1.4121338512        0.5542335671        2.1088409727
 H         -2.4756807892        1.6515809369        2.3687888391
 O          3.8186200330       -1.5984650719       -1.6760173472
 H          3.4131021298       -1.5384474498       -2.5522929655
 H          3.2096793643       -1.0989733817       -1.0887296808
 O          5.7090387771        0.2850685457       -1.2522414563
 H          5.1282229179       -0.4676288293       -1.4834139934
 H          5.2205484405        1.0879015348       -1.5000977831
 O         -1.6932046030        0.5251891512       -3.9127099055
 H         -1.2012277746        1.2898190228       -3.5764243646
 H         -2.5015355723        0.5069094948       -3.3753751641
 O          2.1526112996        1.9356211438        1.4579226570
 H          2.1899941417        1.0111161974        1.1585302810
 H          1.6668460674        1.9597199095        2.3168701730
 O         -1.0057074753       -3.6660644798        1.5835205952
 H         -1.6966510426       -3.7437079693        0.9066942961
 H         -0.1711139829       -3.8908843114        1.1333444189
 O          3.1934902571       -0.8249279410        2.1217000086
 H          4.0119983395       -0.3331975944        1.9505474254
 H          3.2897430468       -1.6718257032        1.6402522803
 O         -0.3097514117       -1.7535054316       -3.3877854752
 H         -0.8653258463       -0.9899408649       -3.6473186703
 H          0.6021092155       -1.4945913673       -3.5853806738
 O          2.2641551033       -0.6918534089       -3.8320128478
 H          2.1496431493        0.1646497861       -3.3691397804
 H          2.4392052375       -0.4853400666       -4.7501207314
 O          1.9712601037        1.5781915770       -2.4013371646
 H          1.1727628505        2.1372119248       -2.4103537050
 H          2.7271409525        2.1246122560       -2.1169871728
 O          1.4172636317        3.8144572313       -0.2557127949
 H          1.6964095295        3.0674581363        0.3237635001
 H          1.9073047339        4.5757302003        0.0543462363
 O         -5.8392431483       -0.3199322458       -0.6197445361
 H         -5.4673445096       -1.0243804952       -0.0485862649
 H         -6.6562163231       -0.6505619076       -0.9928487173
 O         -0.6619098112       -4.0186064199       -1.9968785805
 H         -1.5144738781       -3.8790091243       -1.5661860991
 H         -0.5233525089       -3.2489687942       -2.5857126309
 O         -4.1570352613        1.6239009785        2.7917491320
 H         -4.6913467679        1.8419846707        1.9668181181
 H         -4.4913704157        2.1955051755        3.4825062480
 O         -1.2099135912        3.2568548243       -0.0332672043
 H         -1.3086516838        2.6529072656        0.7240430044
 H         -0.3018841887        3.6131894177        0.0143301203
 O          5.6140279932        0.3696018548        1.3734539967
 H          5.6735499851        0.2893715682        0.3817804588
 H          6.4013939031       -0.0480710377        1.7214315090
