  384
       -651.84985867
 O          1.9627802114       -1.9932369330        0.2240013053
 H          2.0000734170       -2.3040981813        1.1491255117
 H          2.2380200478       -1.0420179916        0.2217047778
 O         -2.3551297561       -2.6712078078       -3.2873997448
 H         -2.3630122646       -3.2636062035       -4.0628989944
 H         -1.5567627826       -2.9288419413       -2.7988003358
 O          4.6081012156       -5.2091287970       -0.0593787466
 H          5.4378759700       -5.3716278978        0.4571747338
 H          4.5886660441       -4.2440143315       -0.2489286490
 O          3.7509331472       -0.6603388921        6.3515283008
 H          2.8229132191       -0.7139237506        6.6246222457
 H          3.7587426632        0.0679603192        5.6971500848
 O         -3.2396883443        3.3988421285        1.6093627043
 H         -3.6845167718        2.6619174530        1.1529947595
 H         -3.8701511402        4.1523981294        1.5301673101
 O         -0.7645371000        2.6254651690        2.7431597130
 H         -0.4511564396        3.4844576532        3.0967409398
 H         -1.6453871646        2.7958564726        2.3885039687
 O         -6.3603897870        2.7636509088        4.4252458081
 H         -5.3895474113        2.6845992003        4.3417872825
 H         -6.6974418275        2.9612156679        3.5423466250
 O         -2.9248850578        3.2238064844       -1.2496415638
 H         -2.3438842023        2.8517350149       -1.9454222957
 H         -3.8243561597        3.1049948830       -1.5733566030
 O         -3.9572886945       -2.8805529907       -1.1855777391
 H         -4.6562292575       -3.5299953689       -1.4051656287
 H         -3.4346411916       -2.7690350870       -2.0047675811
 O          7.7360653365        3.3953625483       -1.7282834758
 H          8.3296319191        3.0984541150       -1.0341985674
 H          7.7413542509        2.7122165474       -2.4094680804
 O          7.0346349656       -2.7072735366       -0.9828486330
 H          6.1464516004       -2.6322767616       -0.6019198676
 H          7.3501426612       -1.7966185694       -1.1510912691
 O         -0.4310441708       -0.6466790062       -3.5452990097
 H          0.1277104664       -0.0081882723       -4.0293323325
 H          0.1833767141       -1.2867496010       -3.1410638744
 O          6.4792901180        4.9955852781        2.5288377530
 H          5.8331946199        5.4974795334        2.0174005237
 H          5.9879293400        4.5709161975        3.2499819918
 O          1.4594059654       -2.2008936651       -2.4927619079
 H          1.4534426328       -2.2610318906       -1.5296278818
 H          2.0632178892       -1.4573549533       -2.7204130347
 O         -0.1372277768        3.9094540889       -1.7760662801
 H          0.1152024273        2.9876229432       -1.5923420986
 H         -0.5452453312        4.2423106379       -0.9454780949
 O         -0.7803993353       -2.6709881463        0.3963960103
 H         -1.2434453200       -1.8893483093       -0.0667352348
 H          0.1631323479       -2.4556412583        0.4130218051
 O         -4.1526775337       -4.9459279329       -4.2902274237
 H         -3.3391105102       -5.0233259705       -4.8058457888
 H         -4.6441822503       -4.2258573064       -4.7247208029
 O          3.6770893146       -2.9273308293        4.9976387245
 H          3.7669196241       -2.1506252860        5.5966885381
 H          2.8172792724       -3.3223094593        5.1876861134
 O          1.6026572889        5.6595485490       -2.6002089334
 H          0.9921187830        4.9404550086       -2.2884762030
 H          1.1196910806        6.1573935817       -3.2597196999
 O          1.3627064443       -1.9402863653       -6.3201355456
 H          1.1792798903       -2.7133465966       -5.7538605151
 H          2.3131937246       -1.7707434620       -6.1973862764
 O          6.8110577350       -0.6836788658        1.2398406761
 H          6.0693479718       -0.0841437920        1.5071613564
 H          7.0848238047       -0.4103167019        0.3482252097
 O          2.3609910431        6.2088106810        2.7059752772
 H          1.7818283374        6.8716774937        2.3171226711
 H          3.2243943744        6.3140459304        2.2952982596
 O         -3.2337456282       -0.1239660262       -3.7623658631
 H         -2.9083186681       -1.0404558413       -3.7404806127
 H         -3.8097369484        0.0093824301       -4.5343074028
 O          1.4048696998        3.9926627026        1.3289389950
 H          1.7653595901        4.7171685586        1.8730558097
 H          1.9688142024        3.9286471204        0.5331617790
 O          2.9207006905       -0.1143470218       -3.1305776508
 H          2.5286708408        0.7851955510       -3.0954834777
 H          3.7533982707       -0.0786185169       -2.6172896356
 O         -6.4734632115       -0.2989977947        2.3913316387
 H         -7.3454969088        0.0779791457        2.1467419471
 H         -6.4145149522       -0.0594214535        3.3487252479
 O          3.9011070615        4.7885048066       -3.8204111552
 H          3.1448789030        5.1044320198       -3.2939643200
 H          3.5143692032        4.6049544690       -4.7037152815
 O          1.9936761773        1.5705353079        2.3655489047
 H          1.6851141949        2.4713426165        2.1467852096
 H          1.2551835881        1.0795549196        2.7590665321
 O         -2.3548347651       -5.9842085928       -2.2177859148
 H         -1.6163301011       -5.3499413934       -2.2956366593
 H         -3.0282090660       -5.7155392122       -2.8523790853
 O          3.8135847364       -1.4393410931       -5.2345906642
 H          3.4244523898       -0.8262350029       -4.5647671480
 H          3.7641112491       -2.3056825556       -4.7802354824
 O          0.6762836350       -0.3676757287        3.5820906271
 H          0.7670171896       -0.4710656071        4.5471270907
 H         -0.1052030830       -0.8885802362        3.3106656924
 O         -2.8072751802       -4.9093410423        0.1513152262
 H         -2.6105874165       -5.4780326071       -0.6273031596
 H         -3.0560502626       -4.0433332424       -0.2332300973
 O          2.3229975565        4.0097969080        4.3066478892
 H          1.9255626634        3.3704334870        4.9498615243
 H          2.9020333735        4.5867421049        4.8027300760
 O         -1.4215205848       -1.8338497731        2.8490239240
 H         -1.2511548947       -2.2748663939        1.9871403369
 H         -1.5631027624       -2.5242890777        3.5213825427
 O          5.2367456362       -0.5590563392       -1.9221963191
 H          4.8662994742       -1.3802496432       -1.5394435219
 H          5.7273326911       -0.8113888352       -2.7267341370
 O         -4.3656100232       -0.8787494053        5.6089944367
 H         -4.0748164105       -0.6497944834        4.6989023649
 H         -4.5235193682       -1.8473896034        5.5857851373
 O         -9.0894048315       -0.9022335664        3.8703623447
 H         -8.4519534887       -0.5296994443        4.5004699924
 H         -9.2634961035       -0.1674056953        3.2642627403
 O          5.4179640500        4.8125462349       -1.4945683350
 H          5.2303175816        5.0804074703       -2.4015999737
 H          6.2531233974        4.3076189857       -1.5174044263
 O         -0.4945190593       -4.0601248433       -1.8403960637
 H         -0.7140957247       -3.6665397626       -0.9656217019
 H          0.3604873787       -4.4879617265       -1.6997113556
 O         -1.2473618473        1.4354312535        5.0368669264
 H         -2.1286537663        1.8253825792        5.1092541224
 H         -0.9542953068        1.6868274892        4.1296734530
 O          5.3960638436       -4.3020434301        3.4786830889
 H          5.2825714037       -3.6960444833        2.6968929286
 H          4.8672463159       -3.8797879482        4.1795477659
 O          1.8409361077       -5.2855665970       -0.9674060958
 H          1.4066295649       -5.8538606663       -0.2847833421
 H          2.7341092683       -5.1408844148       -0.6361025084
 O         -4.5991240112        0.3303087156       -1.5774965594
 H         -5.2837286848       -0.3494090679       -1.4634898766
 H         -4.0792608490        0.0653277041       -2.3736682520
 O          2.6449407150        0.5415631906        0.0077166748
 H          2.4405851272        0.9131088800        0.8992100339
 H          3.5799030380        0.7590224489       -0.1324760425
 O         -6.7755492344       -3.5490595561        1.2489495272
 H         -6.3161432687       -4.3861102352        1.0016711240
 H         -6.8936104983       -3.5768078373        2.2153223275
 O         -6.7550574312        0.1976932765        4.9567162688
 H         -6.6990413705        1.1796339859        4.9337591831
 H         -5.9560543247       -0.1208323652        5.4198877964
 O          1.0305245551       -1.0427809225        6.1903575993
 H          1.0484193015       -1.9667817769        5.8502954436
 H          0.1785930443       -0.9394140204        6.6270009857
 O         -4.5131907019       -2.1297979226        1.3147513499
 H         -5.4072193444       -2.5310500384        1.2739893346
 H         -4.1790272672       -2.2147150933        0.4066995355
 O          1.2547210309        2.2534403560        5.9654955482
 H          0.3659788202        1.9353714993        5.7392552326
 H          1.8834377846        1.5666577018        5.6995055416
 O          4.1317578826       -2.8101674226       -1.0834014102
 H          3.3245350574       -2.5576034593       -0.5818180837
 H          3.8544881772       -3.0672822508       -1.9922378031
 O          7.2583899523        1.1881399615       -3.4628888876
 H          7.1763565466        0.3979295223       -4.0097041198
 H          6.3771277035        1.6222869359       -3.4903573550
 O          0.8551478492       -3.9532332545       -4.5156464773
 H          1.3668217425       -4.7577027920       -4.3780266231
 H          0.9936106990       -3.4102737920       -3.7151906664
 O          5.0529217164       -2.6805372462        1.4334514095
 H          5.7814586774       -2.0278203885        1.4457520667
 H          4.2893984736       -2.1896025719        1.7793287356
 O          3.0431631379        3.6011932942       -0.7959035107
 H          3.5366961028        2.8354910070       -0.4651322277
 H          3.7434055995        4.2150158025       -1.0755499998
 O          0.9200578849       -6.6179757005        1.1172242017
 H          1.6628601552       -6.4644527392        1.7159517949
 H          0.1585266164       -6.1591309573        1.5082557728
 O         -3.6019756484       -4.1181400049        2.8627480876
 H         -4.0446739891       -4.8719089274        2.4667049454
 H         -3.8060649987       -3.3482453305        2.2830084290
 O          1.3042306456       -3.5085271130        2.3909018444
 H          1.9934930085       -4.2010315819        2.3527066314
 H          0.4594719503       -3.9545849945        2.1853257450
 O         -1.7330213825       -3.2788672413        5.1233236084
 H         -2.5713069932       -3.6757764801        5.3702051238
 H         -1.7027285422       -2.4086186478        5.5924463296
 O          5.4384811443        3.4507330903        4.7320806299
 H          5.8501994509        3.6595552397        5.5699170652
 H          5.9974156111        2.7585798839        4.3180470771
 O         -6.6879035667       -0.9359727310       -0.3800399366
 H         -7.1904904559       -0.1449976317       -0.6619077724
 H         -6.5590995509       -0.8815764854        0.5739800309
 O          0.9858990060        0.6700170855       -5.4006010007
 H          1.8626842396        1.0861427364       -5.3647414415
 H          1.1146677077       -0.1721266719       -5.8634090774
 O          6.7376601065       -5.6281849038        1.4312013015
 H          6.3688243020       -5.4576748229        2.3081754374
 H          7.4293367929       -4.9562032376        1.3083348359
 O          2.5297830695        3.9711082158       -5.9767813849
 H          2.9538826179        3.1071890563       -6.0786424878
 H          1.6396459922        3.7772878049       -5.6479242537
 O          3.0628567564       -1.3715884123        2.7877175699
 H          3.3459496825       -1.8716643246        3.5726124014
 H          2.1950536395       -0.9871419394        3.0205546517
 O          0.1012566189        3.4004834764       -4.6973574821
 H         -0.4279267849        4.1975925906       -4.7813616179
 H         -0.4684776506        2.7773276481       -4.1974764729
 O         -2.7831945492        5.2731824347        3.8459311006
 H         -1.8309548833        5.1718471717        3.9969722088
 H         -3.2261462785        4.5998561452        4.3640826948
 O         -3.0539942385        6.7424062264        1.5011455688
 H         -2.8582365002        6.2545805545        2.3185754851
 H         -4.0065690242        6.6335622134        1.4076163173
 O          6.4874048681       -4.0665274379       -3.2833029337
 H          6.2739438927       -4.9841324408       -3.0516441387
 H          6.7654924656       -3.6356901467       -2.4503081176
 O          4.0936580357        3.3410371122        2.1749566315
 H          3.4989811263        3.5735969757        2.9020096947
 H          4.1860467118        4.1317724545        1.6258926666
 O          7.6658138363       -2.7504575652        3.6607491250
 H          7.0156726348       -3.4588499363        3.8075600513
 H          7.9829652204       -2.8954737571        2.7542170358
 O         -4.8978641767        0.8019641818       -5.7451127882
 H         -4.5088083242        1.6854307416       -5.7376601586
 H         -5.7920058705        0.8842070937       -5.3726010274
 O         -5.1657079811        2.5904691118       -2.8367924237
 H         -4.9529392184        1.7603425169       -2.3500040506
 H         -4.5065488731        2.6963108664       -3.5625950082
 O         -7.0260314077        0.9716961077       -3.9516531096
 H         -6.6273355170        0.1034530861       -3.7113225636
 H         -6.4258882515        1.6625010872       -3.6041543573
 O         -0.9958689556       -4.9140614551        2.1283810705
 H         -1.5537035594       -4.8409097582        1.3235185572
 H         -1.6186401707       -4.7842441210        2.8521742212
 O         -3.7189539516        2.2839819009        4.0106160340
 H         -3.7252797144        1.3578551187        3.7121796906
 H         -3.5481590037        2.8006562579        3.1969777081
 O          2.1281980675        6.8581782568       -0.1935875084
 H          1.2748552088        6.9323578488        0.2549757141
 H          1.9591815872        6.4610170897       -1.0656994014
 O         -9.1681846631       -2.2235696960        1.1646494094
 H         -8.3136231347       -2.6839840703        1.0795035087
 H         -9.2234707369       -1.9232798046        2.0810443516
 O         -5.4365242311       -2.8953991928       -5.5515338268
 H         -6.1692818766       -3.1199057439       -6.1240621957
 H         -4.7968495674       -2.3722481286       -6.1150593760
 O         -8.0451189494        3.7803520828       -0.6402763758
 H         -8.0155520791        2.9027357805       -1.0634810958
 H         -7.3688614884        4.3254002021       -1.0636109680
 O         -5.3116443791       -5.6721483055        0.6472502387
 H         -5.6155464969       -5.7752809785       -0.2633531021
 H         -4.3559043827       -5.4586471236        0.5388843524
 O          9.1052748080        1.6255842256        0.4401004368
 H          9.4237822908        1.1423521872        1.2098647804
 H          8.2765541293        2.0666248447        0.7456877231
 O          8.4628472557       -3.4953282510        1.1109767223
 H          7.9548406507       -3.1531638454        0.3371796369
 H          9.3891012746       -3.4492329853        0.8776131523
 O         -5.9774726380       -1.4099589555       -3.3440584530
 H         -5.7292493682       -1.9160317076       -4.1369965721
 H         -6.6446764949       -1.9364096783       -2.8895713423
 O          4.4007478111        5.8042309417        0.7975910146
 H          4.9475782631        5.5549408413        0.0332090287
 H          3.6121653263        6.2290808257        0.3991475037
 O          3.6025123810        1.4668074253       -5.5492537392
 H          4.0079788997        1.7102001391       -4.6903925527
 H          4.1086852949        0.7368720029       -5.9081488047
 O          3.1868111558       -5.4354096228        2.2652377733
 H          3.6375531706       -5.4163317657        1.4002381886
 H          3.8856131706       -5.2266175512        2.9073620398
 O         -1.7193554786       -4.1574808325       -5.4303505105
 H         -0.8079513556       -4.2764299409       -5.1046821138
 H         -1.6944017102       -3.3307105212       -5.9360287593
 O         -5.2646267023        5.0880869761        1.2121412904
 H         -5.9879815031        4.5962564347        1.6277046162
 H         -5.4501638220        5.0748364231        0.2544721655
 O         -0.1764607404        6.9632668004        1.5047599016
 H         -0.5926217161        6.1728979995        1.0864351901
 H         -0.9100734633        7.5687824204        1.6300472053
 O         -1.0273456353        4.6487078416        0.5589791973
 H         -0.2325838595        4.2425109841        0.9740781417
 H         -1.8235030593        4.1894167398        0.8804010942
 O         -4.7616864869       -3.4916518481        5.1882689566
 H         -5.6892539654       -3.3900975941        4.9296269169
 H         -4.3075345235       -3.7427738126        4.3549522179
 O         -1.3429875734       -1.4430453787       -5.9029038343
 H         -0.4934869146       -1.5383365804       -6.3523987894
 H         -1.1084493106       -1.2310214738       -4.9598836105
 O         -3.1115894495        5.8997367757       -1.2197041224
 H         -2.9653871348        6.3100156559       -0.3547676021
 H         -2.9044132320        4.9487691485       -1.0883737519
 O         -5.6440745615        4.9681538021       -1.5105538132
 H         -5.5234586376        4.1884294364       -2.0781939773
 H         -4.8140759104        5.4820173068       -1.5772101981
 O          5.0613774209        1.7778923739       -0.6549047938
 H          5.4368306707        0.9373428754       -0.9570107848
 H          5.6777449717        2.1521509214        0.0090575937
 O         -8.7735543659        0.9778521063        1.8710713772
 H         -9.2350130550        0.8559006705        1.0297560979
 H         -8.3117989180        1.8406308864        1.8448848464
 O         -3.4158020515        3.0518176950       -4.7878424046
 H         -2.7403412609        2.4743531745       -5.1967742040
 H         -2.9184123823        3.8120636964       -4.4328955027
 O          3.8939804859       -3.5336050715       -3.6144901230
 H          3.4073290444       -4.3834859327       -3.6562975802
 H          4.8496536493       -3.7539300434       -3.6113135830
 O         -1.6590068435        1.3857347565       -6.0394009160
 H         -0.7211581102        1.5741259969       -5.8926577649
 H         -1.7155648774        0.4211284864       -6.0641905427
 O         -7.7105234085       -2.9770672771       -1.7346827040
 H         -7.3159800060       -2.3321099860       -1.1024953949
 H         -8.5287835997       -3.2647949663       -1.3295299225
 O          4.6875670440        0.6690176163        1.8308137173
 H          4.1588949673        0.0875340041        2.3996653157
 H          4.4692254736        1.5921002971        2.0382239137
 O          7.8926566780       -0.1170606849       -1.1701785207
 H          7.6541216933        0.3557197112       -1.9928272492
 H          8.5036073001        0.4805913397       -0.6870766788
 O          6.8476445364        1.4627308627        3.6421085900
 H          6.2858307960        0.6568085623        3.7418358546
 H          7.7474080409        1.1185319124        3.5131427249
 O         -1.4835791643        1.8711095525       -3.0970645114
 H         -0.8324125588        1.4422352568       -2.5199241063
 H         -2.0348353208        1.1568706714       -3.4645766373
 O         -7.0479013481        3.0358046980        1.6574410460
 H         -6.3023131071        2.4944530619        1.3229861963
 H         -7.4936159431        3.3953769155        0.8486264492
 O         -8.0235909759        1.1541522167       -1.4517184161
 H         -8.8961401599        0.7724130473       -1.2818629887
 H         -7.8516443869        1.0848552544       -2.4149625910
 O         -1.7617032685       -0.8889591176        6.2806784010
 H         -1.5039522259       -0.0913794359        5.7742504731
 H         -2.7357449062       -0.8333982812        6.3236474953
 O         -7.0046802341       -2.7348173281        3.7732513493
 H         -7.8842131127       -2.4584500807        4.0587601125
 H         -6.6298663455       -1.9391662048        3.3543649668
 O         -4.9785201040        1.4535351099        0.8807480962
 H         -4.8085809210        1.0564943066        0.0114503264
 H         -5.2857725570        0.7370515030        1.4652047001
 O        -10.0746556591       -0.2052905746       -0.3052817962
 H        -11.0274819847       -0.2775622786       -0.2687837140
 H         -9.7174219592       -0.9955269279        0.1669488353
 O          0.9787052717       -3.4474300896        5.0312795929
 H          0.0407348381       -3.6509630223        5.1606764030
 H          1.0937269581       -3.3749566318        4.0530521404
 O         -1.8857792844        5.0234508294       -3.5752548393
 H         -1.3093254299        4.5403819510       -2.9502858427
 H         -2.4034204382        5.6145152896       -3.0147961524
 O          3.5013763445        1.3478383439        4.6063260577
 H          4.0842099729        2.1177643286        4.6477478216
 H          3.0199897851        1.4184135625        3.7568572633
 O         -3.8631680120       -1.4090708753       -6.9779998639
 H         -4.2102112644       -0.5281302167       -6.7631668416
 H         -2.9420349626       -1.4210582213       -6.6706876809
 O         -0.0795921854        5.0561030430        3.6687915754
 H          0.8378994486        4.8333498991        3.9283394621
 H         -0.0080079306        5.7760406722        3.0244605336
 O          5.7241333756       -0.8953730799        4.0354815190
 H          5.4193604817       -0.9810005260        4.9404047779
 H          6.4634383170       -1.5216460595        3.9107491707
 O          4.8469100181        2.3317804288       -3.3197772236
 H          4.5708236075        3.2585733773       -3.4926070178
 H          4.8051894888        2.2200027693       -2.3515234825
 O          2.6573596823       -5.8863190533       -3.4410124625
 H          2.2403541099       -5.7835738562       -2.5572530817
 H          3.4931701007       -6.3442795945       -3.2757045131
 O         -5.6892975275       -4.7941303432       -1.9367399390
 H         -5.3252185556       -4.9713798601       -2.8139310124
 H         -6.4915751958       -4.2498077504       -2.0251975290
 O          1.9888532852        2.3182070661       -2.9503822849
 H          2.3101221040        2.9161763369       -2.2543853767
 H          1.4423748241        2.8166950214       -3.5702063749
 O          5.2218374050       -6.3752411499       -2.3662210995
 H          5.6407059881       -7.2097019561       -2.1586637211
 H          4.9644517967       -5.9729474277       -1.4990800227
 O          8.8992632034       -0.1115630981        2.7774805629
 H          9.0250256947       -0.8404553620        3.3879335272
 H          8.1511449079       -0.3950872899        2.1965721276
 O          6.7912190998        2.6615762288        1.2203725730
 H          6.7547687362        3.5925743988        1.5231880827
 H          6.6434317324        2.1502563286        2.0431625377
 O          6.3340210580       -1.3318360792       -4.2884710250
 H          6.6167990973       -2.2477076216       -4.1969690370
 H          5.4879804750       -1.3503302559       -4.7861486929
 O         -3.5773911985       -0.3180870404        3.0956471124
 H         -4.1174548924       -0.8332872441        2.4717444594
 H         -2.7006074898       -0.7567555259        3.0519911566
 O         -1.7908559000       -0.6210965724       -0.9737609011
 H         -1.4374157754       -0.5679999189       -1.8744611594
 H         -2.7197565200       -0.3742207347       -1.0081861343
 O          0.2046300421        1.3820481733       -0.8866602996
 H         -0.3036741470        1.2265134632       -0.0886954995
 H          1.1285739112        1.1396585349       -0.6986106319
 O         -9.2909339049       -0.9915612545       -3.3325516430
 H         -8.7325218161       -1.6760631975       -2.9485382946
 H         -8.7249639359       -0.3783198674       -3.8083793983
