  144
       -244.31800443
 O         -0.0419440739       -3.1503940563        2.5219781948
 H          0.0194862834       -2.3459738706        3.0841496946
 H          0.8306804091       -3.5656219391        2.5748007639
 O          0.0173670711        2.1973357357        2.7638669647
 H         -0.3394076884        2.9219959264        2.2231287847
 H         -0.7373635697        1.9374384411        3.3401290909
 O         -2.2674057932        1.3659177809        3.7849567068
 H         -2.7946532406        1.9321877749        3.1938221430
 H         -2.4875010209        0.4584627054        3.5231283385
 O         -6.0793501282        1.9866278864       -1.1181062563
 H         -6.3135740891        2.0717279682       -0.1795737853
 H         -5.1255555996        2.1769213911       -1.1455401348
 O          0.5297666332        1.0870201961       -3.8718759879
 H         -0.1022244758        0.6749993766       -3.2605331070
 H          1.3897135797        0.6317664939       -3.7637243606
 O          3.4880954670        2.3222813950       -1.7202137149
 H          3.9858632496        2.4784218973       -0.9019806318
 H          3.0679904406        3.1735417853       -1.9449871331
 O         -1.9531215974        0.9388428278       -2.6140899127
 H         -2.2108645878        1.3893611451       -3.4332480061
 H         -2.5977944020        0.2216324391       -2.4603656282
 O          4.8083341387        0.0840088251        3.8687804812
 H          5.4344884856        0.6912655134        3.4204117759
 H          5.0582481420        0.0450995772        4.7919797841
 O          0.2580874621       -1.2453213458       -2.1802364954
 H          0.0715076164       -1.8361113402       -1.4347719040
 H         -0.2366668561       -1.6026199578       -2.9362982164
 O         -1.3209977937       -0.0046105332       -5.5714056703
 H         -0.5147766510        0.4031604033       -5.2060451346
 H         -1.9562129608        0.7148392478       -5.6361724366
 O          3.2856253226       -5.2182960066        0.0511691861
 H          4.1187501081       -4.8802851467       -0.3055443470
 H          2.6048792749       -5.0475911709       -0.6214438398
 O         -1.6856669384        4.5788186659       -1.5636757583
 H         -1.0958328474        4.1981663868       -2.2574029986
 H         -1.7579502578        5.5158100051       -1.7472273412
 O         -2.5841665825       -3.0090345232       -1.7015325624
 H         -2.2317225097       -2.9988216500       -2.6013956987
 H         -3.0648122307       -2.1500691396       -1.6279883205
 O          0.2748193576       -0.9140226067        3.9667551920
 H         -0.4094403882       -0.3223726161        4.2849640617
 H          0.9960421149       -0.3576391653        3.6074843427
 O         -2.6388522953       -3.7940465611        2.4825181034
 H         -1.6651425596       -3.7845114772        2.5714076057
 H         -2.9873797337       -4.2889854571        3.2247863755
 O         -4.4226012920       -3.8834062169        0.2292117669
 H         -3.8420849897       -3.7779876617       -0.5364960936
 H         -3.8492661535       -3.9163088123        1.0054187208
 O          6.1999161161       -0.8908208221       -1.4511017549
 H          5.9816098584       -1.8355497512       -1.2641109906
 H          6.5818661307       -0.8603226040       -2.3278975669
 O          1.2628446278       -4.4053651301       -1.6545292159
 H          0.6196500096       -3.9591624031       -1.0555170358
 H          0.7778556877       -5.0687008517       -2.1447574059
 O         -1.3280721290       -2.2677211817       -4.1596377590
 H         -1.0000275983       -2.9067252195       -4.7933386407
 H         -1.4658774209       -1.4397184805       -4.6765343411
 O          2.6594121750       -3.6558782597        2.0869154548
 H          2.8581768356       -4.3512331200        1.4134206779
 H          3.5145446249       -3.2593280537        2.3110764885
 O          2.9331535997       -2.2152387746       -1.5989983023
 H          2.3587494673       -2.9413423669       -1.8826831541
 H          2.5502931728       -1.8872305916       -0.7574963022
 O          6.5421838407        1.5660713651        2.4143994861
 H          7.3433693248        1.9992196426        2.7100282832
 H          6.8362352235        0.7712260057        1.8810966778
 O         -6.0906820667        1.8688399964        1.6597038498
 H         -5.4723141230        1.1348109680        1.4304035952
 H         -6.8248844679        1.4721588550        2.1286951805
 O         -1.1648429990        4.1016439320        1.1190958904
 H         -1.3516277002        4.2349622005        0.1739632776
 H         -2.0281578466        3.9109798850        1.5216363793
 O          1.4628011476        4.8562344329        0.5983550974
 H          0.5305517182        4.8053967186        0.8499440507
 H          1.9478008198        4.3675733885        1.2842375633
 O          4.4668080784        2.4354242794        0.8699533615
 H          5.2735760850        2.3063168202        1.3966586175
 H          3.7742827775        2.7151884089        1.4965394479
 O         -0.0242627196        3.6546404347       -3.4219000631
 H          0.2295629589        2.7252883758       -3.6228961608
 H          0.7819669299        4.0659775164       -3.0697905798
 O         -3.3654024501        2.5150846809       -0.9358343975
 H         -2.8486680688        1.8807410132       -1.4751936350
 H         -3.0075603184        3.3832164550       -1.1686456462
 O         -3.8092891563       -0.6774265730       -1.6177902578
 H         -4.7202035750       -0.7222635995       -1.9571633919
 H         -3.9222698601       -0.3550367263       -0.6906141181
 O         -3.5125097211        2.8587667625        1.7887208033
 H         -3.5060741021        2.5707458250        0.8553379073
 H         -4.4507619105        2.8809750683        2.0173152446
 O          2.8944930930       -0.0575409657       -3.2984793076
 H          3.5212183015        0.5849670913       -2.9544121868
 H          2.9675244853       -0.8659748812       -2.7579253105
 O          1.8637836471       -1.5139996881        0.7779432822
 H          2.0960603796       -2.3387495120        1.2690392681
 H          0.9092246622       -1.3801412655        0.8894801848
 O         -6.2282203954       -1.8678700013        0.4799099157
 H         -6.4971559382       -1.5944206294       -0.4099922830
 H         -5.7107866703       -2.6918044887        0.3796504714
 O          2.2933667996        0.3891374304        2.7004917685
 H          2.3281518127       -0.2741530792        1.9871820202
 H          3.1307463687        0.3215286819        3.1785569823
 O          2.1037029367        4.6360253585       -1.9543229320
 H          1.8370792552        4.7258299719       -1.0047092921
 H          2.5547644908        5.4499370545       -2.1812259687
 O          4.0331490881       -0.0844833574        0.0931379814
 H          4.2057512930        0.8201451751        0.4242440193
 H          4.7001920455       -0.2531867984       -0.5880190764
 O          7.1491171266       -0.6032821080        1.1166344859
 H          6.5099094543       -1.2530260334        1.4565456563
 H          7.0066189943       -0.5795857391        0.1558289576
 O          5.1911591686       -3.2119945554       -0.6121457911
 H          5.1545183095       -2.9907115501        0.3265150374
 H          4.3519459079       -2.8767973921       -1.0083042767
 O         -0.4240148274       -2.9749029179       -0.1744673648
 H         -0.4530186211       -3.0968102582        0.7910826901
 H         -1.3250524974       -3.0770038986       -0.5507977200
 O         -2.5457426700       -1.0522009909        2.5142576985
 H         -1.7058059512       -0.8730831466        2.0526797753
 H         -2.6611867810       -2.0171392213        2.5455141419
 O          4.7976934442       -1.8689095685        1.9152305541
 H          4.3974399035       -1.2464917161        1.2579910753
 H          4.8018607174       -1.3730629718        2.7483189407
 O         -2.3611780900        2.5963412667       -4.7891373413
 H         -3.0673661677        3.2147453900       -4.9805838290
 H         -1.5771983347        3.1157460766       -4.5622301208
 O          2.5087300016        3.2453562267        2.5835823237
 H          2.6943033863        3.6214372021        3.4443669712
 H          1.7832740609        2.5999361227        2.7155625763
 O         -6.4728185179       -0.4862506352       -1.9647241749
 H         -7.1785209344       -0.4940874705       -2.6107693082
 H         -6.3975648405        0.4511087698       -1.6421313534
 O         -4.4134954026       -0.0611119149        0.8878712376
 H         -3.7638694004       -0.3959701831        1.5378235483
 H         -5.1264170514       -0.7567033449        0.8273332461
 O         -0.4376742308       -0.0374833027        1.1775075706
 H         -0.1510016931        0.6820503845        1.7687907578
 H         -0.2016614018        0.3301271226        0.3042257913
 O         -5.8247160652       -0.2532445673        3.6360585352
 H         -5.7740694494       -1.0522534393        3.1061022874
 H         -4.9430407592        0.1270834339        3.6632409961
 O          0.7866426798        1.1363197821       -0.9644468471
 H          1.6890221746        1.4459219854       -1.1034899658
 H          0.7286221062        0.3022254043       -1.4534068448
