  144
       -244.32628956
 O          2.5791865957        2.8781148031        4.0960348120
 H          2.5332467150        3.2662529214        4.9709829466
 H          2.0738451106        2.0314805096        4.1351413528
 O          1.1514608168       -0.5416620302       -1.6902361164
 H          0.1959412175       -0.5996792340       -1.5158052242
 H          1.3359583754        0.2418058647       -2.2493900262
 O         -4.7415861881        2.8019874935        1.0724853148
 H         -5.3485070200        3.5427418804        1.0586599660
 H         -5.3140868029        1.9908075971        1.0403816794
 O         -4.0263975776        0.9835808660       -4.7070769836
 H         -4.4305461411        1.3878812325       -5.4753243807
 H         -3.7492209554        1.7090119915       -4.1218549927
 O          6.1908961486       -1.6387875395       -0.0604221649
 H          6.2467097944       -1.1046937636        0.7478287024
 H          5.5885217298       -2.3718681763        0.1378121520
 O          5.1701535796        0.1347276042       -1.7004103373
 H          5.6483229433       -0.6064723750       -1.2482210800
 H          4.8518954531       -0.2053082373       -2.5578840401
 O          3.8354984370        2.6905559870       -1.4678891621
 H          4.2410781132        3.2405913291       -0.7703987340
 H          4.4324120766        1.9448411043       -1.5971793837
 O          5.0767989693        2.7749606592        2.8653059663
 H          4.2614169103        2.7402196112        3.3920220439
 H          5.3757697101        1.8674516583        2.7125603301
 O         -3.1562980873        0.5357597517       -1.4490289171
 H         -3.8220387903       -0.0079191045       -1.9138153285
 H         -3.0457340016        1.3349025598       -1.9874684186
 O         -2.3669107210       -3.7500011519       -0.7446669925
 H         -2.8654305306       -3.9457096510        0.0600896938
 H         -1.4614940558       -4.0764159668       -0.5696017426
 O          3.8278096561       -0.5913548119       -3.9619384891
 H          4.1590639657       -0.4787431255       -4.8536882591
 H          3.1671882416        0.1220488517       -3.8184355039
 O          6.3038798318        0.4382416465        1.8576262544
 H          6.5354580658        1.0252940204        1.1020373245
 H          7.0941601522        0.3603852255        2.3948134649
 O          0.2783855653       -4.9928290712        2.7446287476
 H         -0.3528486895       -4.2761898617        2.9713404705
 H          0.0453185940       -5.7528517892        3.2773011708
 O         -1.9124214294        0.5056307927        1.1041156928
 H         -2.2520909847        1.2068726341        0.5334844636
 H         -2.5738501465       -0.2073725202        1.0410047242
 O         -0.1770269337        1.8725020459       -1.1989111173
 H         -1.0590193197        2.1442191766       -0.8873258342
 H          0.3639711475        2.6948038847       -1.1350003321
 O         -0.4707988603        3.4780511260        1.8406162413
 H          0.0543864251        2.6917529626        1.5877947114
 H          0.1588930437        4.2039778212        1.8954792223
 O         -0.8405727092       -2.2199549050       -3.6800012608
 H          0.0565648024       -2.5686165749       -3.7433707426
 H         -0.9598724480       -1.9176246632       -2.7553086719
 O          0.1367408376       -4.2935516735        0.0077914285
 H          0.9673582345       -4.4404759209       -0.4656470416
 H          0.2380646570       -4.6595705193        0.8970117916
 O         -4.7787317832       -1.0131357951       -2.9314624089
 H         -4.7086418855       -0.4629156868       -3.7238099819
 H         -4.3077474798       -1.8633600626       -3.1226506749
 O          2.5045087692       -4.4994890625       -1.4792476165
 H          2.7062653341       -5.3163314164       -1.9360471261
 H          2.3037613087       -3.8244172050       -2.1727791071
 O         -3.4255601438       -3.8857722106        1.8037771716
 H         -2.6180843448       -3.5763463697        2.2952614315
 H         -4.0546109959       -4.1846301335        2.4606054434
 O         -1.3406425416       -1.3323320663       -1.1572101156
 H         -1.8366358246       -2.1582060063       -0.9569321836
 H         -2.0078198491       -0.6025681460       -1.1920244487
 O          6.8670344924        1.8524919426       -0.3615395030
 H          6.3730691602        1.3075377332       -0.9964088611
 H          7.7686345719        1.9091755924       -0.6801856714
 O          4.6396877295        4.1804475270        0.6709228266
 H          5.3562497369        4.8054731869        0.5571570610
 H          4.8743584292        3.6333368605        1.4613471431
 O         -6.0734155891       -1.3586593886       -0.6285076792
 H         -5.7209116907       -1.1882858085       -1.5251589022
 H         -6.7193425683       -2.0603457767       -0.7150885065
 O          0.0952107188       -1.4559602728        1.2088055820
 H          0.1801870282       -0.5093533723        1.4098450644
 H         -0.4130245071       -1.5028780198        0.3786855330
 O         -4.7902850658       -0.5149767772        3.3520698493
 H         -4.3972855227       -0.7302270453        2.4849134140
 H         -4.6160947994        0.4370724358        3.5222314793
 O         -2.3441931453        3.0881984664       -0.1471519128
 H         -1.7938833055        3.4468809490        0.5715215384
 H         -3.2461446288        3.0058494107        0.2150434881
 O          3.9255846426       -3.1644376820        0.4037952170
 H          3.3507784591       -3.2474490404        1.2064989271
 H          3.5132596409       -3.7352490686       -0.2703608648
 O          2.1043833507       -2.9923341181        2.2610540134
 H          1.6913263358       -3.8073414396        2.5765543686
 H          1.3813981907       -2.4976622117        1.8312687291
 O          2.1327879565        1.3803712605       -3.2886992631
 H          1.3480655931        1.8171440555       -3.6953970345
 H          2.6087306693        2.0497921310       -2.7798687484
 O         -2.4003887684       -1.0219096220        4.5458834697
 H         -3.3451586640       -0.9545428686        4.2896096126
 H         -2.0380266877       -0.1379571339        4.4221895711
 O         -3.8275040715       -1.3635251000        0.9445850371
 H         -3.7182875795       -2.3014512063        1.1901918020
 H         -4.5714277531       -1.3245354677        0.3217625826
 O          2.1277443211        4.5801109072        1.8217862174
 H          3.0163803090        4.6580608379        1.4398535437
 H          2.2525577184        4.1152353849        2.6627958680
 O         -2.8387346331        2.8316477711       -2.9987558024
 H         -2.7652271703        3.3671739676       -2.2004592595
 H         -1.9617432093        2.8481346677       -3.4314721042
 O          1.3658823277        3.9813544000       -0.8314601687
 H          2.2402255954        3.8318029264       -1.2052455750
 H          1.5067096421        4.2905271670        0.0763266570
 O         -1.3317466490       -2.8656129909        2.9984056793
 H         -1.6919263986       -2.2263632823        3.6609625111
 H         -0.8521186018       -2.3188623149        2.3376463468
 O         -1.3810933585        0.0782829064       -5.0288832901
 H         -2.3394691594        0.2139124368       -5.0125475121
 H         -1.2090239284       -0.7968859887       -4.6354623630
 O         -4.0365720471        2.0361952864        3.6402200190
 H         -4.2156486080        2.4374448425        2.7740087896
 H         -3.0749627096        1.9460091611        3.7193754395
 O         -1.3174674625        1.4539650320        3.4533957852
 H         -1.0686587076        2.3552394145        3.1938041599
 H         -1.5234684931        1.0148289192        2.5829255013
 O         -6.3309359071        0.7133383740        1.2286874573
 H         -6.1428980013        0.2544041432        2.0609967937
 H         -6.3306174877        0.0400146851        0.5321402735
 O         -3.3864078150       -3.2277762592       -3.2757101665
 H         -2.5356463010       -3.0057394000       -3.6834135117
 H         -3.1622682474       -3.5824511298       -2.4010674919
 O          1.9690317221       -2.5608120941       -3.2051344548
 H          1.6342543014       -1.8636865021       -2.5965122941
 H          2.7177849430       -2.1430266449       -3.6522950060
 O          1.1524205684        0.6147747167        4.1306270261
 H          0.2395393753        0.8705106309        3.8684479858
 H          1.0639485655       -0.0189995264        4.8429002995
 O         -0.3244634878        2.1792789776       -3.8498198126
 H         -0.3641896527        1.9239019705       -2.9047469892
 H         -0.6679783926        1.4104669229       -4.3656380521
 O          0.8631642536        1.1709046049        1.2279440610
 H          0.5723542177        1.1891724652        0.2980332866
 H          1.7904502155        0.8756093135        1.1941516439
 O          3.3364626576        0.0007716471        0.6718231517
 H          3.2239715550       -0.9516315449        0.5678980533
 H          3.7760973794        0.2963744141       -0.1334920641
 O          3.9254003453       -0.1953292129        3.5002410268
 H          4.1366170865       -0.1729081894        2.5585190558
 H          2.9668297984       -0.2640794044        3.5241602929
