  87
       -142.30629711
 H          0.8879119161        0.0465668177       -3.3774509711
 C          1.1504087840       -0.2884145968       -2.3697308027
 H          1.0492979734       -1.3739127377       -2.3268355591
 C          0.1966418472        0.3591652660       -1.3692867119
 H         -0.8091353160       -0.0113485706       -1.5606111031
 H          0.2162736763        1.4435325731       -1.4758647021
 O          2.4999119744       -0.0029320467       -2.0743556883
 H          2.6664640458        0.9462076193       -2.2175341670
 N          0.5815271242        0.0195482712        0.0100092186
 H          1.5251418225        0.4100404938        0.2462209632
 H          0.6476608752       -1.0147557328        0.1642617689
 H         -0.1399462306        0.3990795585        0.6602256725
 O          3.3591169624       -2.2084464206        2.3480311069
 H          4.0015611505       -1.8516961698        1.6963677851
 H          3.7728623069       -2.9577473530        2.7772672470
 O          1.8863150675       -4.0875822691       -1.1664770923
 H          2.0443331743       -5.0299594897       -1.2348537409
 H          1.1555639817       -3.8737484502       -1.7928987648
 O          2.9844907936        2.7455047412       -2.3845610376
 H          2.8693879457        3.0787619271       -1.4689683596
 H          3.8560993374        3.0172972861       -2.6755492819
 O         -1.4535400898        3.2704586209       -2.5315807155
 H         -0.6717362445        3.0493886796       -3.0692558054
 H         -2.1090953133        2.5855218098       -2.7188432603
 O         -4.9714663304       -0.5377782168        0.1733115084
 H         -4.3346728175       -1.1117679645        0.6501665652
 H         -4.6702657471        0.3704333158        0.3048594149
 O         -0.0681402572       -1.7550834860        3.3141709214
 H          0.1412936785       -0.8040264219        3.2912983072
 H          0.1567395780       -2.1151986530        2.4453114368
 O          2.7953751470        3.3483898433        0.2293260791
 H          3.3755040252        3.8995936118        0.7560939741
 H          2.9884059752        2.4079065914        0.4784295185
 O         -1.7451575263        4.0157602775       -0.0227134296
 H         -1.9030590810        4.9595806822        0.0128630169
 H         -1.5671786253        3.7951606932       -0.9701365583
 O          1.0863594275       -2.4778711965        0.8824444564
 H          1.2891529127       -3.1493672986        0.2092385810
 H          1.9017171513       -2.3843850956        1.4136181754
 O         -1.9459869474       -2.0004666043       -1.3022192201
 H         -2.7648717449       -1.7590851452       -1.7640855468
 H         -2.2099153290       -2.2057072433       -0.3925848839
 O          3.9585836070       -2.3179722798       -1.7157440649
 H          3.4874346087       -1.5395495333       -2.0526719587
 H          3.2776539268       -2.9877843345       -1.5317318517
 O         -3.4859948276        1.9024634955       -0.0263645921
 H         -3.0474092135        2.7614835565        0.0974617795
 H         -3.4934661359        1.7518794510       -0.9904278350
 O         -2.9149526068       -1.8983038942        1.2831660449
 H         -2.3838198310       -1.0691329240        1.3241437265
 H         -3.0090179170       -2.1758844826        2.2033070898
 O         -2.5739173516       -1.8174760719        4.0530398386
 H         -1.6103399040       -1.8853163183        3.8128732100
 H         -2.6910346273       -2.3260933009        4.8557128011
 O          3.0710548300        0.8145984724        0.8196320751
 H          3.0632272366        0.7165501948        1.8129542734
 H          3.7607878380        0.2024101107        0.5119182343
 O         -3.5562861566        1.4053416418       -2.7294478729
 H         -4.2721236511        1.8247808685       -3.2101984340
 H         -3.7735880622        0.4491733460       -2.6864057098
 O          4.9058441543       -1.1854240561        0.4118723856
 H          5.8617864006       -1.1613762726        0.3664441732
 H          4.5916141899       -1.6631722033       -0.4105295103
 O          0.2646942335        2.5813234249        1.1986321470
 H          1.0675729205        3.0151387101        0.8788884468
 H         -0.4834011904        3.1116364252        0.8803495741
 O         -2.3988510375        0.8755883449        3.9737065451
 H         -2.5485852293       -0.0877349669        4.0988284967
 H         -3.1934093038        1.3214918701        4.2683651484
 O         -0.1637929366       -3.4034396975       -2.6945387774
 H         -0.6563616007       -3.9660877225       -3.2925373976
 H         -0.8253210875       -2.8997756643       -2.1677575867
 O         -1.7284187484        0.4733162413        1.3527084294
 H         -2.3522738195        1.0045132470        0.8088757134
 H         -1.8854365134        0.7399978868        2.2761420893
 O          0.3444508991        0.9718775768        3.3818667408
 H         -0.4416258115        1.1622745391        3.9070838631
 H          0.3206246257        1.5912852707        2.6255437531
 O          0.7466099460        2.5891054503       -3.9813555464
 H          0.8790667934        3.0519019474       -4.8097440457
 H          1.5580746179        2.7026672213       -3.4577412791
 O         -4.3660667243       -1.1133549674       -2.2859295076
 H         -5.0754146745       -1.5862519446       -2.7220639058
 H         -4.6855734333       -0.9164895141       -1.3548566145
 O          2.9924134052        0.3684734176        3.3794343317
 H          2.0840512148        0.6063575176        3.6269628534
 H          3.0279296545       -0.5986055823        3.3426511200
