  609
      -1033.88723305
 O          1.4138311171       -2.4259116715        1.6515595779
 H          2.3306507567       -2.2533653093        1.8792727118
 H          1.3795814962       -2.4127452387        0.6692896198
 O          0.3195845589       -0.1258845074        2.2165483452
 H          0.6538913942       -1.0439424519        2.0674328597
 H          1.0251052991        0.2951127606        2.7299204119
 O          0.3937208349        1.1246967293        4.9593395095
 H          0.5625456316        1.8231277963        4.2956655393
 H         -0.0122224271        1.5331933611        5.7413727187
 O         -2.5151469853        4.0738702211        6.4682298814
 H         -2.7483267694        4.9286425735        6.0752496134
 H         -3.1613546659        3.4452769317        6.1043084301
 O          1.3040805227       -1.7749063687        4.5652663150
 H          1.8934703896       -1.1799226345        4.0639425375
 H          1.1066005325       -1.3061959257        5.3905671037
 O          0.3444404137       -0.8530127145       -3.2785312086
 H          1.2364966678       -0.7780093229       -2.8785990196
 H          0.5040111998       -0.9407952389       -4.2442234291
 O          3.8729577121       -2.8494550920       -1.7390073468
 H          4.4125630764       -2.1525344714       -2.1640369871
 H          4.4504612156       -3.3497084009       -1.1460943753
 O          4.5696405412       -5.9522725161        3.5361809701
 H          4.6261456406       -5.5952869241        4.4298984758
 H          3.6399568773       -5.9365590962        3.2948426691
 O         -1.0297056691        2.3124866515        0.9219635637
 H         -0.4337652277        2.5124209100        1.6637790776
 H         -1.9343898547        2.3102363835        1.2898660686
 O         -3.4139679691       -3.3527398284       -1.4125708741
 H         -4.0027283576       -4.0517360773       -1.7549713394
 H         -3.0460931153       -3.6964297884       -0.5832770241
 O         -1.9585848260        2.8199242387        3.6711126105
 H         -1.2380358724        3.1788562608        4.2134095526
 H         -1.8320508248        1.8698545374        3.6386011101
 O          2.9485040932       -0.1934736223        0.1147498905
 H          3.4605789424       -0.7862297100        0.6820725025
 H          2.9142836753        0.6789862430        0.5424067965
 O         -1.6917420163       -0.1354941709        4.1085106434
 H         -0.8190059404        0.2649919439        4.3788672770
 H         -1.4823650120       -1.0242240232        3.7680297633
 O         -0.9785438655       -2.6639462797        3.5046123778
 H         -0.9017224755       -3.1884429207        2.6868206819
 H         -0.0570336697       -2.4331277459        3.7422649385
 O         -0.2247716755       -6.8359837631       -5.2367667270
 H          0.0931746645       -6.3761775004       -6.0378738762
 H          0.5768929839       -7.0024855767       -4.7197403011
 O          5.6547866179       -4.7549324302       -0.8006734912
 H          6.0009632388       -5.6085441335       -1.0999888304
 H          6.3259006296       -4.0828687250       -1.0317116449
 O         -2.8429353180       -2.2599633464       -7.1149712829
 H         -2.1298824774       -2.3242263701       -7.7770102951
 H         -2.5014572185       -1.5674032095       -6.4956983128
 O         -1.9509715796       -0.3785322973       -5.5247708739
 H         -2.5915096928        0.3486613429       -5.6210055865
 H         -2.0861929320       -0.7756755974       -4.6523380082
 O          1.6196333161       -3.9783458117       -3.6364967989
 H          2.2445701336       -3.3293200405       -4.0203751002
 H          1.8816169215       -4.8789628719       -3.8909061415
 O          1.9670597965        5.0823958894        2.5197184421
 H          2.9206523594        4.9031038717        2.3827118674
 H          1.9341056791        5.9838700599        2.8724037567
 O         -4.1003579041        0.6868568223        3.3285479170
 H         -4.5444986290       -0.0125578906        2.8032079661
 H         -3.2178167687        0.3364206328        3.5316425515
 O          1.5832620481       -5.2797839021        2.3917586555
 H          1.6200370866       -4.9656537614        3.3245183209
 H          2.3504031927       -4.8722744455        1.9204187751
 O         -5.3056823690       -0.9551345175        5.5043488987
 H         -4.6980892126       -1.5112938544        4.9832323911
 H         -5.8190118429       -0.4424301543        4.8442249569
 O         -1.8793013793       -2.3485809124       -3.4916674808
 H         -2.3336427835       -2.7343064965       -2.7256054948
 H         -1.0395853373       -1.9738950378       -3.1785068248
 O         -3.1503678375       -3.6493133582        1.3427598333
 H         -4.1061423885       -3.6268983895        1.1547558838
 H         -2.8612678280       -2.7331306935        1.4496490325
 O          2.1758306856       -4.9187200066       -1.0882431370
 H          2.0226015150       -4.5544110141       -1.9758651937
 H          2.5110635288       -5.8124501884       -1.1795555561
 O         -4.8531566272       -1.0478082083       -0.7284131848
 H         -4.3633979029       -1.7986642693       -1.1090045848
 H         -5.7822895013       -1.2346561939       -0.9015434978
 O          6.3581627720       -4.8922209978        1.8001078995
 H          5.7775708101       -5.3233556477        2.4545458205
 H          5.8385813522       -4.8341495318        0.9717606045
 O          5.9995135860       -0.6633729764       -0.0167678542
 H          6.3718048755       -1.4796752536       -0.4046069141
 H          6.7811012039       -0.0959563374        0.1527340984
 O         -1.6537307417        4.8957081834        1.9670891118
 H         -1.9418199479        4.0881512085        2.4364731630
 H         -1.1195529725        5.3695795477        2.6404725299
 O         -3.6069583110        2.4956510047        1.4878625365
 H         -3.9676658325        2.1707970240        0.6418711315
 H         -3.8488125587        1.8245054212        2.1628949732
 O         -3.1908311411        0.3818748229       -3.1361272091
 H         -2.3682025133        0.8756256535       -3.2911282454
 H         -3.6587587456        0.8701440326       -2.4426011087
 O          2.2493941191        1.0275121018       -4.8181661421
 H          2.2454153142        0.7120733260       -5.7389683700
 H          1.9224295963        1.9441376460       -4.8461827452
 O         -3.0304701849        6.2690648831        4.7347881921
 H         -3.4183487380        5.5941468621        4.1241711710
 H         -3.7063778442        6.9383526159        4.8396403391
 O          6.2184241191        5.8992415724        4.0526471386
 H          6.7913578598        6.3268105694        3.4080977122
 H          6.6072056244        5.0265981622        4.2649869184
 O          5.0584518664        0.8177512076        1.9764716692
 H          5.2344878198        0.1360140839        1.3013633294
 H          5.8076064239        0.7748035062        2.5823931470
 O          0.0607930600        8.3368343958        2.1166014064
 H         -0.8551612700        8.3209405643        1.7967557595
 H          0.5699431126        8.0059043579        1.3444666250
 O         -0.6149738495       -4.2929552919        1.2826087926
 H         -0.4322865359       -4.0706601407        0.3592318608
 H          0.2237462742       -4.6310662632        1.6691950818
 O         -6.2227100596        1.0046821250        1.0559319593
 H         -6.5108836445        0.6253749769        1.8993023777
 H         -6.7768990434        0.6284786821        0.3538083503
 O          1.9365764666       -6.6891258515       -3.5585092186
 H          2.7938804999       -7.0713422369       -3.3305963092
 H          1.3537099881       -6.8196336146       -2.7861242162
 O          3.6277109205       -7.1138855545        0.1772337164
 H          3.8364928983       -6.2897301625        0.6393591101
 H          2.8039784485       -7.4505399344        0.5501395807
 O         -0.4915086075       -4.2438243621       -1.4851273773
 H         -0.0003483783       -5.0752843830       -1.3749606991
 H         -1.0069268659       -4.3961590633       -2.2942840997
 O          4.2289518714       -4.5326947707        6.0018206159
 H          4.1154686536       -3.8514527192        6.6763487752
 H          3.3363420089       -4.5907521267        5.6078075944
 O         -1.7205845669       -5.3293272067       -3.6658881905
 H         -1.1291404885       -5.8880771754       -4.2278299526
 H         -2.3477479089       -4.9301788661       -4.2890302891
 O         -5.2388096506        2.2268548706       -3.8286860760
 H         -5.9743625093        2.5932330534       -4.3648713767
 H         -4.9241642632        2.9385935938       -3.2356799047
 O         10.1664494567       -3.8136051988        1.6399832954
 H          9.6225532800       -4.5616511472        1.2700955581
 H         11.0774255664       -4.1021233214        1.6269543313
 O         -6.1327647968        5.9510540336       -3.7954697334
 H         -6.9751851370        5.7106187169       -3.3946878708
 H         -5.8131911531        6.7395369944       -3.3362354421
 O         -4.3221152089        1.6387315750       -0.9769020135
 H         -4.5584420003        0.7270584151       -0.7309873586
 H         -5.1710270811        2.1026750764       -1.1347163302
 O          5.5353321030       -1.3716025097       -3.2242426294
 H          5.2813308536       -0.4640188478       -3.4922197399
 H          5.5625466284       -1.8766639398       -4.0546907761
 O          4.2417780984       -1.8095947055        4.4771806945
 H          5.0543645250       -2.3619872844        4.5381853493
 H          3.7359868494       -1.9860087403        5.2971693733
 O          0.6006294769       -1.1247943020       -5.8779832779
 H         -0.1733451727       -0.5765502679       -6.0665261204
 H          0.2638745050       -2.0510224341       -5.8789305844
 O         -0.7409478383        1.5237866942       -3.4362656794
 H         -0.2673686366        2.1106061387       -2.8258106599
 H         -0.2531465386        0.6673270315       -3.4250304418
 O          5.3764175747        2.9476204909        0.3481037710
 H          5.1934766215        3.7160826269        0.9200441802
 H          5.3248806802        2.1799787150        0.9579096638
 O         -4.3318799937        4.3397095632       -2.5298168172
 H         -4.3120114219        4.5427878265       -1.5746505534
 H         -4.9607009620        4.9618038875       -2.9385091849
 O          6.4362216771       -3.2085885933        4.8894200377
 H          6.8520617552       -2.6206663829        5.5506005778
 H          5.9528101389       -3.8955206823        5.3692375853
 O         -6.6365662549        2.9994250737       -1.3011403003
 H         -6.4925143295        3.9448240086       -1.0953544990
 H         -7.3224835081        2.6978660413       -0.6697617032
 O          3.1617468468        4.4457390021       -0.3584696980
 H          2.5729063364        4.8362520328       -1.0329258342
 H          3.8905882358        4.0368375826       -0.8340175146
 O          7.4173281400        3.6380746070       -1.3109331032
 H          7.0345718725        3.3887927119       -2.1788666371
 H          6.7666533155        3.3958091853       -0.6273358652
 O          9.1626558991       -2.9723035118        4.0708307891
 H          8.2124180540       -3.1574623843        4.1042039182
 H          9.4900644443       -3.3279630258        3.2275522116
 O          4.3943542779       -4.6974955318       -3.5872871126
 H          4.4012015261       -5.5613357575       -3.1302569121
 H          4.1084032792       -4.0279834273       -2.9219496775
 O         -3.7666034179       -2.5715409355        3.9831040426
 H         -2.8520081336       -2.8688211543        3.8939581422
 H         -3.9854571685       -2.1021830411        3.1519891922
 O         -9.2303016231       -2.3429405314       -4.0027695518
 H         -8.3425953053       -2.1958391332       -4.4138151257
 H         -9.8481326895       -1.8202218378       -4.5135807649
 O         -0.2599914768        0.9402008337       -7.9672383791
 H         -0.4742547814        1.4553691220       -8.7440596212
 H         -0.6350938284        1.4243039242       -7.2004881492
 O         -7.7170950473        0.0877024392       -1.0788494592
 H         -7.1522106315        0.0119109173       -1.8781790178
 H         -8.2875838663       -0.7060433617       -1.0730837601
 O         -7.3018811636        2.9470457504       -5.3457586428
 H         -7.7306815111        2.0773801281       -5.4514572966
 H         -7.8174964826        3.4246127542       -4.6651169097
 O         -7.5103519400       -1.8888856163        1.7778817493
 H         -7.7710461541       -2.1670638833        2.6839744981
 H         -7.7755559659       -2.6108898693        1.1750907188
 O         -4.5705883541       -1.9147059990       -3.5772523304
 H         -3.9587005352       -1.1788078097       -3.3782522222
 H         -4.1202923525       -2.4848876439       -4.2021850112
 O         -1.9644328906        3.6232544403       -1.1585953556
 H         -1.4851883258        3.1845723320       -0.4175527744
 H         -2.7315936572        3.0745961623       -1.3487585506
 O          1.2923559045       -2.2504361368       -0.9845335684
 H          0.7134524442       -2.9429629157       -1.3501129218
 H          2.1926111881       -2.4292456176       -1.3046723420
 O          1.7726844973       -4.3940736252        4.8461393814
 H          1.6823982047       -3.4202680808        4.7831490473
 H          0.9282718658       -4.7192636404        5.2286977589
 O         -2.4305182469       -5.3312314150        3.4439687366
 H         -2.5243486985       -4.7408140807        2.6723190742
 H         -3.3057305475       -5.7645337623        3.5455106526
 O          5.2331895403       -0.4267735595        7.5181536484
 H          5.2927592592        0.0247739210        6.6551567265
 H          6.0821965284       -0.8564715954        7.6459879127
 O          1.7305501371        5.5289310149       -2.4155743212
 H          0.9258290715        5.0285245578       -2.6505409210
 H          1.4410996086        6.4486666208       -2.4427678217
 O         -5.1828034066        4.5789037293       -6.0683300539
 H         -5.9138785305        3.9451694267       -6.0951572256
 H         -5.4948630906        5.2711775820       -5.4697667118
 O         -8.6463935674        2.5074520303        0.4386698979
 H         -8.6100018994        1.5766979674        0.7431681917
 H         -9.4887961612        2.5682117887       -0.0535013959
 O          2.9753219154       -1.8669474395       -4.7066319709
 H          2.2698223543       -1.4897032110       -5.2511681839
 H          3.0402043495       -1.2973347606       -3.9176779330
 O         -0.5186578718        4.4197359203       -3.2792736263
 H         -0.9800400796        4.0587175110       -2.4953237038
 H         -1.2110011719        4.6025542790       -3.9264351218
 O         -1.3042028828       -2.4294447049        6.3933303941
 H         -1.2298990054       -2.4706741727        5.4293824281
 H         -1.9924529944       -1.7632511182        6.5835510024
 O          0.8009051484        2.6676636337       -1.4449467138
 H          1.7081590637        2.6825504750       -1.8028846273
 H          0.7157910169        3.3993578068       -0.8071985545
 O          5.3652227501        0.5419765095        4.9288097383
 H          4.8637045967       -0.2797407059        4.7234781498
 H          6.2515627451        0.4097338630        4.5475965483
 O          7.7867948397        1.1299446325        0.8039102802
 H          7.6889859388        2.0864815407        0.8751450614
 H          7.8329888093        0.7964300815        1.7144667318
 O         -0.4648778598        6.3743055994        3.8399228788
 H         -1.3261438262        6.5758334122        4.2441614365
 H         -0.1908350761        7.1627885199        3.3212387636
 O          0.4794043025        4.7824630990        0.3154203332
 H          1.1172745121        4.7530608523        1.0578070448
 H         -0.3943316020        4.7448414646        0.7494122507
 O         -0.6882324588       -5.0781945735        5.6117867380
 H         -0.9873175936       -4.3443334398        6.1617912204
 H         -1.2896000202       -5.1153685631        4.8497772344
 O          2.7899317003       -0.3028452111       -2.4884613149
 H          2.9592785950       -0.2964198552       -1.5228825330
 H          2.7492722530        0.6143564520       -2.7835803859
 O         -4.8765059244       -6.4206999312        3.3299024609
 H         -4.8922993972       -6.6079162858        2.3767317500
 H         -5.3512773213       -5.5695244917        3.4186738526
 O         -2.8660533261       -0.2221799304        6.4902084759
 H         -2.5168467895       -0.1270395575        5.5751238600
 H         -3.8277852763       -0.3048770070        6.3937480087
 O          4.3832424244       -7.1226996458       -2.3765046964
 H          4.1215036423       -7.1703165214       -1.4314670301
 H          5.3115042060       -7.3835696323       -2.3764927416
 O         -6.8947888614        0.3193632437        3.7045885524
 H         -6.8338157995        1.2896166969        3.8544939979
 H         -7.7276162751        0.0579442488        4.1213177974
 O         -5.7084856705       -4.6465972449       -4.6104397875
 H         -5.3883180363       -4.9156766760       -3.7245317363
 H         -4.9135125912       -4.6535613637       -5.1695784805
 O          4.5928244914        4.6412042484        2.2848168375
 H          4.4960346202        3.8471579536        2.8650690974
 H          5.1078927035        5.2683029033        2.8224249013
 O          6.7809426138       -2.2918876322        2.1266904729
 H          6.7079356274       -3.2653484536        2.1863358435
 H          7.4845938426       -2.1034267325        1.4605188325
 O          3.8434231076        3.7860706837       -6.0826792307
 H          2.8906327478        3.6979542521       -5.9328946987
 H          4.1495194074        4.3551860222       -5.3668765585
 O         -1.0274661599        1.6432840170        7.2136131534
 H         -1.7679573432        1.0169101673        7.1034467282
 H         -1.4356574605        2.5105245694        7.2953436434
 O         -0.3292655498       -3.5063244837       -5.3851918193
 H         -1.1099231063       -3.2259419849       -4.8760637114
 H          0.3260042334       -3.7480849551       -4.6929231610
 O          6.8911068167       -4.1030324423       -4.1579239865
 H          5.9436687577       -4.2878530451       -3.9238084965
 H          6.9964535808       -4.3936499820       -5.0631544597
 O         10.1258541363        3.5732790856       -0.7813191020
 H          9.1601552221        3.5954710782       -0.8897661733
 H         10.4035934330        2.8388873705       -1.3474515505
 O         -5.2421836191       -0.8550626147       -6.7379691747
 H         -4.8271296096       -0.0181357623       -6.4655688187
 H         -4.5170453960       -1.4147790497       -7.0524535057
 O          2.7144063357        7.6218448230        3.0666873917
 H          3.2568534191        7.5516717521        2.2630623667
 H          2.0064845250        8.2477367261        2.8900597920
 O          4.8694759228        0.9352165574       -4.4287378852
 H          3.8866767252        1.0081880439       -4.4384951950
 H          5.1047853123        0.9994636472       -5.3735117631
 O          3.5779359146       -4.3104055531       -6.1727327069
 H          3.7223543833       -4.5506062790       -5.2394251287
 H          4.3573813616       -3.7792768517       -6.3808158677
 O          7.7565865670        0.4833915837       -2.5532927329
 H          6.8556553625        0.7546316180       -2.2871783188
 H          7.6991896172       -0.3748487674       -3.0053516301
 O         -4.7611525487       -6.5322942659        0.5800200985
 H         -4.8655266173       -7.3396711404        0.0779020934
 H         -3.7909824441       -6.3368540505        0.5788727913
 O         -4.5326527676        2.5173077149        5.2841603161
 H         -5.4891905559        2.6359694943        5.2872994038
 H         -4.3597593773        1.7902324297        4.6541191193
 O          2.9490547899        1.0319985180        6.0520510271
 H          2.5942293393        1.9317706809        6.0708055240
 H          2.3076012407        0.4703047765        6.4960062860
 O         -8.6513886593       -3.8503357578        0.3539933334
 H         -9.2409582123       -4.0356222995        1.1109160314
 H         -8.1551584655       -4.6559712993        0.1452998548
 O         -2.1295257901       -6.3297944625        0.5295879466
 H         -1.8494420209       -6.9921254160        1.1752048728
 H         -1.6674291933       -5.4988886292        0.8029937852
 O         -6.7428363563       -3.1565087334        6.0389923527
 H         -6.1022567069       -3.8576263028        5.9154481282
 H         -6.2450864179       -2.3091974365        5.9951761098
 O         -4.2806171874        4.3981862895        3.3643805418
 H         -4.3357899672        3.7731122175        4.1152289637
 H         -4.0322063419        3.8310532602        2.6125410074
 O          7.7580690566       -1.4781400423        6.4810630400
 H          8.6539470429       -1.7687491381        6.3009874939
 H          7.7874642052       -0.5004707902        6.4934139368
 O         10.4538591211        0.2657878229        1.5545245817
 H         10.2980716065        1.2345166775        1.6047489821
 H         10.9831174777        0.0999633430        0.7635976763
 O          7.0836733653       -2.6232374084       -1.4043504188
 H          8.0480569084       -2.4802422364       -1.3986455745
 H          6.7168287084       -2.2090443717       -2.2033198536
 O         -5.7218620074       -3.9324181314        0.5547841951
 H         -6.0299581344       -3.5643616417       -0.2969800379
 H         -5.6108169184       -4.8864932801        0.4338537556
 O          0.7522797207        2.7694357761        2.8994243676
 H          1.0281847236        3.6863984486        3.0549462123
 H          1.4445843746        2.4117867032        2.3048636234
 O         -9.2130184383       -0.1821369546        5.1486229158
 H         -9.9262384335        0.1753730405        4.5622653253
 H         -9.3740226205        0.1299064705        6.0374767768
 O         -4.2560628896        4.8346271811        0.1568111616
 H         -4.9625172824        4.3528270874        0.6499142811
 H         -3.4213416351        4.5390903507        0.5367807538
 O        -11.9145320175       -1.9426823481        2.2314832555
 H        -11.2893054029       -2.6816810857        2.3388361445
 H        -12.7848701852       -2.3002778214        2.4072600209
 O          2.6851120621        0.1995818498        3.4142964120
 H          2.7941344275        0.5806730304        4.3044590466
 H          3.5053324442        0.3725296281        2.9286137312
 O          3.6286155523       -4.4211111937        1.0464459517
 H          3.8801025572       -3.5116131362        1.3005085373
 H          3.1557167627       -4.3781498542        0.1926827954
 O          3.6899051926        6.0755911071        5.2082047435
 H          3.2732056253        6.7080705028        4.6079934927
 H          4.6269161975        6.0756443145        4.9692839738
 O         -2.1905104095        6.4010512647       -1.4852832402
 H         -2.1497991986        6.7809290753       -0.5773935886
 H         -2.1376647718        5.4345699863       -1.3797741936
 O         -9.1194822736        0.1455292074        1.4465544909
 H         -9.8149933490       -0.1173711811        0.8102170572
 H         -8.4984627139       -0.6126214683        1.5551459047
 O          5.3010022875        1.1923968423       -1.6697006059
 H          5.3005052576        0.3544763040       -1.1540246495
 H          5.4290117741        1.8817550565       -1.0022444491
 O          0.9430638950       -5.2365143680       -7.0879816089
 H          0.4449902895       -4.5045317179       -6.6906077907
 H          1.8631021769       -5.1203291517       -6.8237035442
 O          9.7474751927       -2.4412449461       -2.0493174851
 H          9.4846457610       -2.0194153650       -2.8790835687
 H         10.2838788934       -1.8047956426       -1.5506292845
 O          7.3872151228        0.0114740586        3.3006007966
 H          8.2891793935       -0.0760867174        3.6822779193
 H          7.1438338891       -0.8928121164        3.0112933380
 O          1.2727803228        7.3091510882       -0.0293533675
 H          0.8580495946        7.6649469885       -0.8292636096
 H          0.9667206105        6.3705667229        0.0224622992
 O          7.0222276710       -7.0835810601       -1.5366907141
 H          7.3468394151       -7.4410949684       -0.7068222096
 H          7.7412937665       -6.5380400044       -1.8920828274
 O          8.1765779423       -1.6621777707       -4.2088236280
 H          7.7062928742       -2.5141916538       -4.2215787445
 H          7.9673000468       -1.2234080128       -5.0418610764
 O          0.9690409323       -7.4884612819        1.1017508933
 H          1.2017213417       -6.6615837957        1.5803651249
 H          0.2450087752       -7.8485183531        1.6308290921
 O          5.4030756070       -2.2189145974       -5.8343978583
 H          5.9184400433       -1.4569281291       -6.1394365925
 H          4.5030286832       -1.9095650103       -5.6141678879
 O          8.3389288113        1.8041461781       -4.8204564867
 H          7.7756257199        2.5862573535       -4.7903749152
 H          8.1257240482        1.3360432351       -3.9840586785
 O         -2.8173351822        4.2370490603       -4.8073925944
 H         -3.5649160944        4.4315303539       -5.4000346653
 H         -3.2220219944        4.1909546627       -3.9237308576
 O          0.2580394259       -6.9356040801       -1.4169100373
 H          0.5186982861       -7.1639668304       -0.4958584061
 H         -0.5420952032       -7.4242747592       -1.6202801120
 O          0.7209690126       -0.7684869328        7.1024436563
 H          0.0238153694       -1.4531488778        7.0287716655
 H          0.2545068543        0.0438149301        7.3317856078
 O          6.7666347522        6.3694355644        1.3442487677
 H          7.2386741860        6.4626250811        0.4950644101
 H          5.8519452102        6.6200166357        1.1702738697
 O          4.1063880748        4.9701264870       -3.5304666426
 H          3.1798704948        5.2186266686       -3.3504686261
 H          4.6137532728        5.6203677436       -3.0006991102
 O          7.5004249311        3.7458481092        1.7888959033
 H          7.2886903129        4.6796485232        1.6178572518
 H          7.1446415788        3.5361595181        2.6676523001
 O         -8.4536595905        3.7987400934       -3.0681673969
 H         -9.0091466144        2.9949931969       -3.0539707234
 H         -7.6845560116        3.5421605767       -2.5072497199
 O          8.6246843605       -5.6344233486        0.5742099779
 H          7.7942156090       -5.4266494335        1.0524494390
 H          8.5319532423       -5.3039246067       -0.3328354862
 O         -1.0892008621        2.4299068081       -5.8974700418
 H         -1.7672986129        3.0951224346       -5.6899248483
 H         -0.9614895454        1.9662331094       -5.0364811342
 O         -7.4220838563       -5.9815727725       -0.9620606803
 H         -7.7851068360       -5.5957741082       -1.7832176572
 H         -7.8466548170       -6.8294124342       -0.8374528560
 O         -6.8884210400       -2.2449926890       -5.1566827942
 H         -6.4386825057       -3.0926944937       -5.0034489447
 H         -6.3081218745       -1.7347563653       -5.7568899165
 O         -4.9444894127       -5.4180716941       -2.1665797799
 H         -5.6933269710       -5.7057595508       -1.6266890909
 H         -4.2423199932       -6.1170467363       -2.1207914218
 O         -4.9083879252       -1.3904214462        1.9158634258
 H         -4.7013713754       -1.1647307863        0.9888627945
 H         -5.8719981135       -1.5552212970        1.9308320743
 O         -4.7229652906        7.3833228409       -1.8578543044
 H         -3.8236447655        6.9961640176       -1.8668773994
 H         -4.7740591451        7.8884504496       -1.0376781637
 O         -0.0240323139        7.6709478316       -2.3864692437
 H         -0.3160209799        8.3805286743       -2.9563360047
 H         -0.8286482116        7.1494135088       -2.1477109999
 O         -6.4499369858       -0.0394742591       -3.3598209616
 H         -5.8932109280        0.7653885104       -3.4446941832
 H         -5.8874069451       -0.8017986667       -3.5871672141
 O         -8.0798999380       -5.8183051458        2.8426673928
 H         -7.4913387592       -5.0886940924        3.0900435929
 H         -7.6493135471       -6.6136838679        3.1573120600
 O        -11.2612157737       -0.4597057432       -0.0291395801
 H        -11.6433548486       -1.0166635658        0.6661636107
 H        -10.7784651605       -1.0492872736       -0.6386072591
 O         -8.2507098093        0.3798046019       -5.2213061632
 H         -8.0409922761       -0.1210919115       -6.0106788244
 H         -7.5513948710        0.1291659648       -4.5616038335
 O         -3.2554924594       -4.4628864384       -5.7777647475
 H         -3.0853001368       -3.6252407103       -6.2880148690
 H         -2.9361634146       -5.1719715068       -6.3374330052
 O        -10.1216995250       -4.0155945457        2.6230832826
 H         -9.5580168944       -3.4830218488        3.2310272173
 H         -9.8473805859       -4.9238348442        2.8028637609
 O          3.2603165487       -2.1037688066        6.9602839731
 H          2.4034198589       -1.7472189395        7.2161549972
 H          3.9389960787       -1.4755843028        7.2976871344
 O         -4.8711665708        7.3431713797        0.8977213593
 H         -4.7093317219        6.4264609107        0.5834571776
 H         -5.3783993853        7.2167503980        1.7257855542
 O         -5.9991985073       -3.9907483164        3.2605076377
 H         -5.9747411077       -3.8228760672        2.3008314130
 H         -5.2479987491       -3.4953979353        3.6336155059
 O         -9.4462054659       -1.9275773835       -1.3374169843
 H         -9.3657998758       -2.1297563357       -2.2871496684
 H         -9.1474884394       -2.7065513132       -0.8336176384
 O          2.3921957663        0.2434697162       -7.4460507296
 H          2.3534976585       -0.7245785738       -7.5230080277
 H          1.5078619240        0.5507757972       -7.7029440370
 O         -6.5396550178       -2.9005543474       -1.8420007213
 H         -5.8561736815       -2.6942387891       -2.5004776905
 H         -7.1444782680       -3.5208059852       -2.2712978135
 O          2.1761816967       -2.5261838740       -7.7481391911
 H          2.3841381967       -2.9436537595       -8.5841163094
 H          2.5605506017       -3.0966063774       -7.0571861761
 O         -9.8295303645        4.9086808599       -0.9039865482
 H         -9.3274757644        4.6931082487       -1.7095726311
 H        -10.5351519897        4.2568593276       -0.8445319772
 O         -1.2484009839       -7.6310779403        2.7705863866
 H         -1.5400129450       -6.7490865653        3.1079561554
 H         -1.3794048660       -8.2463708102        3.4902503174
 O          5.2404770037        6.6982237137       -1.8559026738
 H          4.8037399076        6.8831040686       -1.0079115728
 H          6.1924062227        6.6851249214       -1.6908458417
 O          8.6012535160       -4.9476796626       -2.1740545772
 H          7.9853694976       -4.6529360626       -2.8692132963
 H          9.2329776294       -4.2189129884       -2.0873675232
 O          6.2110097665        3.1368961529       -3.6542331943
 H          5.5669761638        3.8470304246       -3.7471846541
 H          5.7295787040        2.3001127376       -3.8418664330
 O          4.8595772489        1.4477774620       -7.0661392289
 H          4.6067196039        2.3634608822       -6.8454169454
 H          4.0376931778        1.0218703251       -7.3553340703
 O          2.5153225712        3.7153112422        5.6533718440
 H          2.9086820723        4.6080432844        5.5672462245
 H          1.5541107998        3.8382448787        5.5463737311
 O         -6.6907129377        5.6443916295       -1.0071925408
 H         -5.9943611040        6.2952649918       -1.2006310524
 H         -7.1480762583        5.9314838735       -0.2140270780
 O         -6.2021895509        3.6273750574        1.5099333235
 H         -6.2431596001        2.6748075839        1.2641116307
 H         -7.0559842183        4.0437132830        1.2975089725
 O         10.2497017392        1.3722490911       -2.4527949662
 H         10.2723279427        1.5788061934       -3.3913410181
 H          9.3264425515        1.0857480114       -2.2794921287
 O          7.8675345953        6.2165803991       -1.1091351211
 H          7.7220131900        5.2402253489       -1.2159990084
 H          8.7998900634        6.3627836473       -1.2679914208
 O          5.2954971472        2.7488287881        6.5367707815
 H          4.6904139812        1.9998395117        6.4118463069
 H          4.7545758977        3.4937434331        6.8049435423
 O         -8.3772737131        5.2730858147        1.3466613118
 H         -8.9303359533        4.9396357702        2.0614932527
 H         -8.9243911903        5.1850917095        0.5355431807
 O          6.8806166701        3.3025475908        4.3686919974
 H          6.3020696138        3.0268688801        5.1039127509
 H          7.7630081737        2.9165840763        4.5240924950
 O         -9.4465297733        1.3073252015       -2.8386058764
 H         -9.2343474640        0.9031349556       -3.6885414112
 H         -8.8252482533        0.9252750340       -2.1815385614
 O         -8.4874552922       -2.5874588530        4.1443146382
 H         -7.8412976411       -2.9449502214        4.7980667622
 H         -8.8420581412       -1.7859263790        4.5636694032
 O         -6.9559012124        2.9546295083        4.0247827086
 H         -6.5017314939        3.2941963610        3.2256014881
 H         -7.9015370673        3.1078417685        3.8504321638
 O          3.9959495719        2.5935819162        3.7234226115
 H          4.5570576592        1.9368708927        4.1771762989
 H          3.4111600394        2.9813991269        4.4044767077
 O         -9.4477164502        3.1790021050        2.9541441657
 H        -10.1424061512        2.5659023581        3.2087983826
 H         -9.1726099620        2.9200817581        2.0480165087
 O          7.7445925917        1.2143177576        6.6711760994
 H          8.3978593076        1.7639507945        6.2295166433
 H          6.9473670679        1.7424563824        6.8065059145
 O         -0.5428483897       -1.8550936634       -8.4734151592
 H          0.3058839784       -2.1944226280       -8.1583730636
 H         -0.4971598233       -0.8959776077       -8.3512674239
 O         -0.1166256948        4.1032435366        5.2549036301
 H         -0.0988185342        4.9646314069        4.8061996113
 H         -0.8660351693        4.1360031740        5.8796159223
 O          3.8786773051        6.8943347485        0.5758331885
 H          3.7554752370        5.9242814868        0.5306541279
 H          3.0207527800        7.2352640127        0.2591219554
 O          4.1916071013       -1.9483335930        1.8548539993
 H          4.0691785926       -1.8611265345        2.8231494113
 H          5.1722582652       -1.9968681540        1.7626712472
 O          7.0828477969       -0.0441871747       -6.3476687586
 H          6.4687601590        0.4609718930       -6.8973573838
 H          7.6126897595        0.6396946853       -5.8827458080
 O         -6.1841771701        6.3418725820        2.9815211069
 H         -6.9803788215        6.0231410928        2.5420570711
 H         -5.6110912326        5.5637746582        3.1166652021
 O         10.0743168076        2.9292933640        1.8304488833
 H         10.3475828065        3.2206767928        0.9381233402
 H          9.1476231084        3.2375477354        1.8757685328
 O          8.8032618513       -1.6884860490        0.5688736452
 H          9.2271713824       -0.8605425671        0.8503438874
 H          9.4057775782       -2.3989219313        0.8342797784
 O         -2.8714987296       -7.0031057625       -1.9784083504
 H         -2.3969093815       -6.4499353061       -2.6420706540
 H         -2.5113157345       -6.7403113358       -1.1127671103
 O          3.2017726666        2.5278492504       -2.5450285286
 H          3.5073300439        3.2859129190       -3.0601675454
 H          3.9908822054        2.0071106797       -2.2912786607
 O          1.2410278234        3.5022158914       -5.1819418072
 H          0.4772537242        3.1838625252       -5.7005117602
 H          0.8323613164        3.8816642243       -4.3886351233
 O        -10.9012530847        0.6070105999        3.3112019092
 H        -10.1944647895        0.4924891674        2.6265787267
 H        -11.5235029588       -0.1034952015        3.1213110124
 O        -11.0064875811        2.2397199728       -0.8277228043
 H        -11.3474558402        1.4313428141       -0.4210885132
 H        -10.6718372154        1.9501273235       -1.6912662829
 O         -2.2429968714        7.3570884412        1.0063714530
 H         -2.1342461288        6.4749062581        1.4068528824
 H         -3.2030020110        7.5541808166        1.0655921743
 O         11.4549812657       -0.4873370985       -0.9639076470
 H         11.0648257212        0.2280019056       -1.5113281644
 H         12.3739244916       -0.5651334205       -1.2180739337
 O          2.7092037090        2.2446275284        1.2350259870
 H          3.3404940193        2.2726487805        1.9723843453
 H          2.8537857064        3.0369855551        0.6875156793
 O         -3.9155528319        1.4268164468       -5.9459424296
 H         -3.9385162255        2.2169952573       -6.4862913962
 H         -4.2864140961        1.6805606002       -5.0666833955
 O         -8.1302170687       -4.7430929725       -3.2576336596
 H         -7.4425839014       -4.8582939195       -3.9310239296
 H         -8.7320868791       -4.0627139335       -3.5947029039
 O          9.4023595843        2.2821367190        4.5523005916
 H          9.8416296728        2.6581284066        3.7779863313
 H          9.6371604986        1.3407743478        4.5361645357
 O          9.8597128019       -0.4136356607        4.0949042875
 H         10.2734309507       -0.2739057918        3.2240571372
 H          9.7069893701       -1.3841090265        4.1649132807
 O         -1.6246432753       -2.0853903777       -0.0749243639
 H         -1.9352041175       -1.3078563059        0.4154685218
 H         -0.9406360849       -1.7277446809       -0.6403495005
 O         -0.2053380559        0.1646663926       -0.7649435445
 H          0.5402174602       -0.3740507639       -0.4863789655
 H          0.1361500555        1.0616690220       -0.8412687481
 O         -2.2638539469        0.0873057253        1.2393496237
 H         -2.0332726448        0.5003130776        0.3953012544
 H         -1.3930355998        0.0951308709        1.6828046504
