  611
      -1033.51089889
 H         -1.1537482482        0.2393024025       -1.1701960195
 C         -0.4155603422       -0.4910473525       -0.8422870721
 H         -0.2453471631       -1.2184601604       -1.6397714874
 C         -0.9421231537       -1.1861213110        0.4101965875
 H         -0.7671174389       -0.5229929804        1.2618968469
 H         -0.3993323587       -2.1120904300        0.5772881402
 N         -2.3568990672       -1.5013363207        0.2267853428
 H         -2.6971025267       -2.0385740401        1.0111463665
 H         -2.8868356480       -0.6405411869        0.1722415474
 O          0.7707310721        0.2207520908       -0.5860532575
 H          1.3909801278       -0.3862259607       -0.1379553958
 O          2.8431131594        3.1666281101       -4.4191548297
 H          2.2981755592        3.0441702464       -3.6245068848
 H          3.3886866507        2.3583692854       -4.4354021450
 O         -1.1500796873       -3.6901995863       -3.8963986755
 H         -1.8136628141       -3.4377978397       -3.2179862485
 H         -1.0081906282       -4.6608301182       -3.8937763351
 O          4.6991606569       -0.7074209463        1.3230359640
 H          3.8375146376       -1.1324593203        1.1125262662
 H          5.2642103904       -1.3778844577        1.7296277635
 O         -5.4545019387        0.4056047890        1.1067712654
 H         -4.9048094979        0.8042166183        0.4051159487
 H         -6.3783911728        0.6137779251        0.8663061446
 O         -1.3213815184        4.0761498395        1.9502866726
 H         -0.5745561987        4.4334702733        1.4276010198
 H         -1.4848690279        3.1345104731        1.6814692152
 O         -1.5815170687       -1.3116826706        4.8046794721
 H         -1.6419245333       -0.3372074820        4.6694933911
 H         -2.4125666986       -1.6935126884        4.5076518772
 O          1.1372525274       -4.0074595317        0.7909755068
 H          1.8647177023       -4.5515113932        0.4131791450
 H          0.3336563471       -4.2688727013        0.3212910430
 O          3.1661631317        4.7609634657       -1.8114091608
 H          3.9605758239        4.5404882145       -2.3259210410
 H          3.3393421811        4.4782261287       -0.8914238388
 O         -3.7550997742        0.9923097339       -0.9672885809
 H         -3.7557926090        1.8177476769       -1.4912819573
 H         -4.1126496636        0.2956684180       -1.5393775569
 O          1.4975181083       -0.0900506949       -3.4903910151
 H          2.0203521705        0.2394402303       -4.2421494184
 H          2.0955086833       -0.6534767747       -2.9574634346
 O          0.5105219742        4.8744039628       -2.1495574151
 H          1.3872039402        4.4649465319       -2.0769865971
 H         -0.1655840170        4.1662168025       -2.0627643232
 O          0.6807639029        2.7276851538        0.2548067502
 H          0.6218814047        1.8419848154        0.6447394870
 H          1.0354260978        3.3202608892        0.9395690812
 O          4.3475210378       -3.5874118451        1.7847746547
 H          3.7364735318       -3.0444230270        2.3229024498
 H          5.0273977408       -3.9430812198        2.3976034867
 O          1.3861080039       -5.5120890418       -1.9743933384
 H          1.7015083979       -6.3950216413       -1.6975598491
 H          0.4829037307       -5.3987854301       -1.6413983102
 O         -1.2394106541        2.9973974369       -1.5514410213
 H         -0.6557972777        2.7127258219       -0.8237809660
 H         -1.2024086079        2.3103480128       -2.2515897320
 O          2.2346420252        0.5876468759       -5.9879076807
 H          2.8738297227        1.1609173222       -6.4564932889
 H          2.1282095457       -0.2149146371       -6.5296833283
 O          3.3351842400        5.8620498869       -4.6060585309
 H          2.4175266615        6.1832555555       -4.5270549463
 H          3.2690258010        4.9007555773       -4.4553573073
 O         -0.9122233265        1.1624568287       -3.4023447007
 H         -0.7207598348        1.5984076426       -4.2603463311
 H         -0.1178701571        0.6447625314       -3.2038068755
 O          0.9030200913       -0.0042459538        4.8897559404
 H          1.1764351614       -0.6557811442        5.5484555138
 H          0.9514513773        0.8527285916        5.3410046814
 O         -3.1670522225       -0.2632971717       -3.5880731420
 H         -2.9821329662       -1.0641482995       -3.0578410252
 H         -2.3672479578        0.3033160785       -3.5570780014
 O        -11.4659481712        0.9321416289       -1.3432053203
 H        -10.8881402433        1.4113243342       -1.9596021863
 H        -11.1424942918        1.2168857981       -0.4692985496
 O         -3.6049845563       -4.3522770643        0.4001031978
 H         -4.1805152275       -3.5925737911        0.5866451897
 H         -3.8564379054       -4.6187260910       -0.4932371222
 O         -5.9150637733       -1.4609534863        3.8614501676
 H         -6.3170894345       -1.8908675066        3.0925622304
 H         -6.3908990736       -1.8370909857        4.6236191684
 O         -3.4089624822       -2.8650335920        3.2805976416
 H         -2.6757956446       -3.4122155663        2.9295414549
 H         -4.2302759737       -3.2742386478        2.9453993178
 O         -1.8214245694        1.3071619111        4.5787553548
 H         -2.5528397954        1.6661001003        4.0499145527
 H         -1.0600642795        1.9090144016        4.4184263083
 O          1.0489395253        1.1449094200        2.4814878835
 H          1.0226207850        0.4429574224        3.1506115164
 H          0.8319031007        1.9379164226        2.9856467523
 O          3.8054254887       -4.0632464205       -2.1565935852
 H          3.4543708635       -4.6414913272       -1.4545874842
 H          4.1788692546       -4.6536100054       -2.8408228112
 O          0.0172776333       -8.3489186414       -2.7547623951
 H          0.9350338543       -8.3421839702       -2.4460990498
 H         -0.5220872717       -8.3581939236       -1.9488472703
 O         -5.2178049977       -2.1411079710        0.5304117356
 H         -5.2667329758       -1.9837880160       -0.4352767500
 H         -5.2247848044       -1.2267437268        0.8909836859
 O          6.9845660151       -2.6642275024       -6.0040415494
 H          6.7067373426       -2.7126631248       -6.9186167309
 H          6.2209605282       -2.2866216087       -5.5098686598
 O          7.4679790586       -4.7945136470        0.6921477297
 H          7.9911731154       -5.0246667292       -0.1079534637
 H          6.7930386463       -4.1737002508        0.3469859533
 O         -7.4614626986       -2.5849524518        1.8334390701
 H         -7.8979626036       -1.7138550162        1.8768317319
 H         -6.6967610898       -2.5131401275        1.2191136036
 O          4.4017568937        6.9608352024        0.1282203334
 H          4.0811705004        6.0475713627        0.2232582378
 H          4.5109288290        7.1075787860       -0.8177375916
 O         -5.6238235184       -2.5512926237       -4.2940975874
 H         -6.5617696892       -2.3602561172       -4.4582835240
 H         -5.1070590855       -2.0541164657       -4.9675623318
 O         -2.8136429650        4.5759729094       -0.1625987931
 H         -2.3073948661        4.5708765921        0.6733775136
 H         -2.2515408240        4.1010463435       -0.8086670337
 O         -9.2841945244        2.0575303594       -2.5509291392
 H         -9.1227150668        2.6388099228       -1.7809816254
 H         -8.9360436197        2.5543293243       -3.3120963624
 O          5.7190714854       -6.8946887600        0.8247870577
 H          5.1181068431       -6.7639911409        1.5761812744
 H          6.3895079327       -6.1895136513        0.8761583778
 O          0.9237812632       -3.5457348087        5.2358342788
 H          0.6323666230       -2.9905803243        4.4731570083
 H          0.1111618722       -3.8949671825        5.6442912440
 O         -0.4952629638       -6.2541479878       -4.3033249316
 H          0.3649514373       -6.1167168584       -4.7175185641
 H         -0.3676372885       -7.0358009490       -3.7132634514
 O          1.7884026885        2.2794849202       -2.1387845401
 H          1.3794843307        2.3650445349       -1.2531624551
 H          1.6320788565        1.3619840669       -2.4231214970
 O          4.1962933640        0.8868773000       -3.9134018182
 H          4.3238489898       -0.0298914471       -4.2024352346
 H          5.0377417090        1.1665462429       -3.5294805957
 O         -0.4474775800       -1.2403481100       -4.9899052016
 H          0.3087617916       -0.8649687007       -4.4970217977
 H         -0.7075018155       -2.0324730420       -4.5072053676
 O          1.5186134509        4.2711924020        2.2703578970
 H          1.9939355946        3.6804183919        2.9021618145
 H          1.1891050957        5.0022863222        2.8199730453
 O         -6.9320076451       -5.3298525599        0.5293133104
 H         -7.8422380089       -5.4068107920        0.8546956588
 H         -6.9711995076       -4.5618274106       -0.0961885073
 O         -4.0519834289        1.3399231016       -6.9313531543
 H         -3.1756091570        1.1498081342       -7.3005937486
 H         -4.3551114476        0.4651550640       -6.6368789467
 O         -0.9850856055       -4.5574377843       -0.9772912222
 H         -1.3014757830       -3.6586826245       -1.1236539725
 H         -1.7062730096       -5.1364574601       -1.2717217095
 O          2.1460280590        7.0636271907        1.7488525557
 H          2.7242950706        7.4067322020        1.0556927500
 H          2.7385961151        6.5541676885        2.3326826835
 O         -3.9533019300        3.2971414404       -2.4558921089
 H         -3.7184066394        2.8953251364       -3.3187652994
 H         -3.3086512418        4.0209886189       -2.3982443671
 O         -2.7196725709       -2.5331840162       -2.1470606339
 H         -3.5402234273       -3.0682129637       -2.1233281022
 H         -2.6195016189       -2.1345805134       -1.2259157487
 O          5.6421112430       -3.1690181037       -0.4758906459
 H          5.0570322378       -3.5041781602       -1.1861504107
 H          5.0990151554       -3.1679262121        0.3395389185
 O          2.4151271993       -7.9303519543       -1.4426675363
 H          3.3694242373       -7.7951545063       -1.5945525528
 H          2.3154090413       -8.0413779786       -0.4841045539
 O          2.4424354530       -1.6758572209        0.3595980093
 H          2.6980784124       -1.7167810682       -0.5872649727
 H          1.9531631439       -2.4905760928        0.5729479610
 O          5.4725681658       -0.1688549227       -1.1496145449
 H          5.0514735074        0.7149681640       -1.2603007070
 H          5.2599680389       -0.4184495971       -0.2210246763
 O         -2.4766800850       -3.4333656584       -6.2460371843
 H         -1.9661973388       -3.4454863072       -5.4108452032
 H         -1.8320643542       -3.2047958472       -6.9316760832
 O         -2.1608144818        4.2862097418        5.6975067942
 H         -2.6432229773        3.5918780150        6.1813235972
 H         -2.8267485864        4.7112057344        5.1500174957
 O         -8.1338607579        3.6038106581       -4.5026568228
 H         -7.1966087630        3.6128653323       -4.7716194128
 H         -8.2432906767        4.3650523853       -3.9088208742
 O         -5.5572791485        3.3519331040       -5.3584628177
 H         -5.2245649315        3.0391374306       -6.2044347089
 H         -5.0728953128        4.1876748702       -5.1339457581
 O          2.0680811266        4.1004665868       -6.8218181796
 H          2.1400098591        3.7067234992       -5.9287175913
 H          2.3698381774        5.0054176803       -6.7266454541
 O          0.7099475805        6.4196533368       -4.2806147818
 H          0.6366800633        5.8493486823       -3.4725691861
 H          0.2504861551        7.2270835254       -4.0418869369
 O         -5.6620712993        5.4418620890       -2.1305159910
 H         -5.2290060371        4.5644257013       -2.1378167774
 H         -5.1992093177        5.9884969399       -1.4802688010
 O         -1.4816180287       -4.1709216872        1.9688154005
 H         -0.9817276265       -5.0046556863        1.9579998923
 H         -2.1438167420       -4.2759650458        1.2556467188
 O         -0.1416932619        3.2610868889        4.2453237596
 H         -0.6376715286        3.7280870612        4.9407254529
 H         -0.4892867229        3.6351393034        3.4150864079
 O          0.5829611106        6.2676553621        3.9233296218
 H          0.9997429032        6.9339812665        3.3652446270
 H         -0.3768069393        6.3843595050        3.8254867547
 O          8.1186491696        4.5322670615       -3.4945795545
 H          8.4788671276        3.7575434469       -3.9410239049
 H          7.1472934942        4.4066613942       -3.4604045985
 O          7.0346783211       -3.8625908937       -3.5083192223
 H          7.3128538088       -3.8017952280       -4.4294942087
 H          6.7991160632       -2.9371373559       -3.2838756976
 O          5.9106433674        2.9396302878       -5.7351627278
 H          6.6538880610        3.3609423807       -6.1648885095
 H          6.1827883114        2.0143095389       -5.5472075835
 O         -3.5874356812       -8.0360858717        1.0626297413
 H         -3.4847092818       -7.4163388194        1.8064355631
 H         -4.2312700635       -7.6347135765        0.4591795868
 O         -4.4681430930        5.6247008627       -4.5813108336
 H         -5.0510333934        5.7669754523       -3.8180690393
 H         -3.5794567766        5.5797138932       -4.1824831197
 O         -1.5355781407        0.2776158623       -7.0785386881
 H         -1.2236024419       -0.4091697575       -7.6815162139
 H         -1.4555695807       -0.1291853208       -6.1995165365
 O         -2.9372376257        2.4768385384       -4.7437606556
 H         -3.3305324942        2.0953885342       -5.5490592048
 H         -2.3780961633        3.2126836532       -5.0129618245
 O         -7.8197381785        0.9125950562       -0.0068859964
 H         -7.4333939413        1.5236014189       -0.6769260545
 H         -8.6253345513        1.3346277379        0.3375546368
 O         -5.9988638746        1.2281723973        3.9198711886
 H         -6.7102382558        1.5558540019        3.3304213557
 H         -6.0222908330        0.2496702973        3.8625526073
 O         -3.8431130741        2.5538098317        3.0849676084
 H         -3.9227432513        3.4563414056        3.4379048578
 H         -4.6082360215        2.0410475479        3.4213122561
 O         -2.0694684569        6.3826420495        3.1729066617
 H         -1.8731197102        5.5295292973        2.7435313503
 H         -2.8700549444        6.2280088372        3.6821121283
 O          1.1597770866        2.0804677213        6.6868499529
 H          1.2123684725        3.0260987404        6.4986121009
 H          0.2671928817        1.8922489824        7.0425252970
 O          6.8341457655        2.0708861320        1.9245352319
 H          6.6479359321        2.5000974151        1.0694766698
 H          7.3608380438        1.2679932771        1.7761225833
 O         -3.5093038143       -0.1785893094        2.8631330809
 H         -3.5604563299       -1.1463393756        2.9170729255
 H         -4.3066987954        0.1036767026        2.3893471543
 O         -8.0237921968       -4.4665887855        3.8246965922
 H         -7.7144821424       -3.9059803117        3.0914441636
 H         -8.9695211187       -4.5601768056        3.6947694433
 O          4.6824825882        7.1560792158       -2.7445748063
 H          5.1242605231        7.8320909216       -3.2561388202
 H          4.1903277702        6.5927160200       -3.4025961173
 O         -3.7702145401       -1.7069970159        7.5503309426
 H         -3.7688295644       -1.0141289331        6.8604436062
 H         -3.9215249534       -2.5339685213        7.0607027100
 O          1.0815355756       -2.8556827643       -2.6280540203
 H          0.2632396258       -3.1997488123       -3.0226791603
 H          1.5086755645       -3.6138701742       -2.2108116616
 O         -4.8051381230       -4.1621454787       -1.9871863777
 H         -5.0880447702       -4.6575149114       -2.7748049190
 H         -5.6131787239       -3.7321529193       -1.6578764197
 O          4.1810613897        2.0878811713       -1.0775652997
 H          3.8399300566        1.9103150067       -0.1740923579
 H          3.3768839788        2.1897079738       -1.6352685776
 O          3.6521664343        0.3045597546        4.2214630128
 H          3.5598984777        0.2645874760        5.1974452112
 H          3.2225564384        1.1483802678        3.9792050920
 O          0.1482936281       -2.2678491027        3.0704844594
 H         -0.3767794550       -2.9258247343        2.5854683188
 H         -0.4682507375       -1.7312239652        3.6111815151
 O         -0.2721509021       -6.6124155047        1.4976076277
 H         -0.6391076330       -7.0970785764        2.2400619010
 H         -0.6802346162       -6.9923516282        0.6836810088
 O         -5.3222655061       -4.5601198240        2.5263649370
 H         -5.9507021012       -4.7896878086        1.8122243075
 H         -4.5533776304       -5.1385578019        2.3890386025
 O         -7.2081474838       -3.3922277463       -1.2024791443
 H         -7.6759951216       -3.8482917873       -1.9327802830
 H         -7.7978289834       -2.6576619007       -0.9119424240
 O          9.6789770989       -3.6173113582        1.8133654344
 H         10.1343786360       -3.3927795244        0.9919362399
 H          8.8653532542       -4.0729961740        1.5272988996
 O          2.3628013364       -1.7764243501       -7.3125735566
 H          2.3746170937       -2.2885925459       -6.4760096760
 H          3.2746803586       -1.6346389829       -7.5863637974
 O          3.8722640464        2.1808742758       -7.3927619905
 H          3.2014431014        2.8909721122       -7.4375354000
 H          4.5631425031        2.5205819818       -6.7935417769
 O          2.4201343732       -2.9859741691       -4.9086020123
 H          1.9474888431       -2.7439481398       -4.0768006589
 H          2.4066773385       -3.9659228661       -4.9104367450
 O          5.0942028159       -7.4752513039       -1.6342134893
 H          5.2761884298       -7.1673022667       -0.7034072161
 H          5.6267574435       -8.2620648656       -1.7459797754
 O          1.9441211418        7.2048632382       -1.5029477741
 H          2.3493554291        6.3265583332       -1.6473252654
 H          2.5570224916        7.8348683076       -1.8805743461
 O          8.7793623181       -1.7120666255        6.0302898473
 H          8.5179198474       -0.8099760484        6.2704056563
 H          7.9401339736       -2.1926679883        5.9065215358
 O          4.9283470163       -0.4091783866       -7.4212744873
 H          4.4889791578        0.4109425690       -7.6861255323
 H          5.6880184512       -0.1064693055       -6.8838500068
 O         -5.6049416398       -5.6605000679        4.9369570191
 H         -5.6717348573       -5.2253813121        4.0554165788
 H         -6.5090991323       -5.7328230995        5.2425939570
 O          9.6198885792       -1.0757130241       -2.9864212996
 H          9.8754077179       -1.7703173607       -2.3453697378
 H         10.1025155243       -0.2891018430       -2.7058304986
 O          8.0424417176        1.2944805594       -0.7816413483
 H          8.2410148898        2.2621536650       -0.7097663900
 H          8.2863389097        0.8873741819        0.0660564936
 O         -2.9082349913       -6.1136545519       -2.1456362668
 H         -3.0277123382       -6.0448660249       -3.1056880769
 H         -3.7758035714       -6.3283219135       -1.7629451050
 O         -4.0758788697        0.0942911038        5.5635348819
 H         -3.9214464329        0.0327781954        4.6004128275
 H         -5.0270980110       -0.0149059554        5.7183139495
 O          3.2764542440       -5.3676137924        0.1208122921
 H          3.0609057979       -6.2364602786        0.5061878410
 H          3.7644631612       -4.8579847048        0.7996687424
 O          6.3974631042       -2.5513026987        5.0994392203
 H          5.5032882597       -2.7958231080        5.4205785667
 H          6.2995285187       -1.6600809956        4.7077575017
 O         -5.5864884165        6.4868400854        2.0192874428
 H         -5.9052056176        7.3580990890        2.2495597191
 H         -5.0314411264        6.5986037344        1.1956014846
 O         -0.3533826060       -2.2034436199       -7.5118302182
 H         -0.2521747560       -1.8893235216       -6.5883197001
 H          0.5469786561       -2.2377251374       -7.8492781001
 O         -5.3571772678       -1.1799500911       -1.9321311259
 H         -6.2515195774       -0.8112384318       -1.9318453491
 H         -5.3113850310       -1.7228490795       -2.7419006283
 O          5.4295000904        4.0666904997       -3.2404995606
 H          5.7017318977        3.1748216371       -2.9386621851
 H          5.2006918341        3.9385975668       -4.1702087543
 O         -8.2477937388        5.6008960515       -2.6006676018
 H         -8.3772391138        6.5158535749       -2.8464511941
 H         -7.2932744367        5.5011000076       -2.3668600373
 O          9.0486467803        1.9046988095       -4.2269069762
 H          9.6416578935        1.7786111521       -3.4596717953
 H          9.2558364747        1.2019161107       -4.8503021124
 O         -8.6940984733       -0.2669986487        2.3916611706
 H         -8.4573099134        0.6774047084        2.3858536623
 H         -9.5520853292       -0.3424608093        1.9367716317
 O         -7.9889187692        2.3311697903        2.6177512450
 H         -7.6810695784        3.0848707104        2.0768519027
 H         -8.3390772159        2.6959434508        3.4590849504
 O          0.0257776497        2.0451203104       -5.7296788179
 H          0.8930545222        1.5919271617       -5.7901906684
 H         -0.5326807033        1.6230772566       -6.3997472661
 O         -5.5530036603        1.1292090088       -3.8597458853
 H         -4.6931223070        0.6771007575       -3.7857192628
 H         -5.4153628875        1.9371002301       -4.3932860651
 O          3.5109069148        1.7022315285        1.4629219601
 H          4.0371605603        0.9047598644        1.6234354318
 H          2.6098546118        1.4981960209        1.7866425657
 O         -3.7501906752        2.3958222056        6.8919356395
 H         -3.8249236934        1.5893073560        6.3327248907
 H         -3.1167772130        2.1516348546        7.5744891025
 O         -0.7556991192        7.5504571216       -2.0764956697
 H         -1.1901422228        7.8832022341       -1.2868395377
 H          0.1718152201        7.3912177262       -1.8171804227
 O          6.6214436418        1.7245858415       -2.9630860549
 H          6.9396317422        1.5055833586       -2.0730088478
 H          7.4150003053        1.7713005634       -3.5230080934
 O         -5.2560928370       -6.8806174669       -0.8774455396
 H         -5.8245065664       -7.4394339036       -1.4063136278
 H         -5.8459212278       -6.3034791276       -0.3453624380
 O         -1.5034218373       -7.7704330891       -0.5348866761
 H         -1.9497869929       -7.1830073119       -1.1714503500
 H         -2.2295945941       -8.0781338341        0.0547489756
 O         -8.7170838652        0.7985837674        6.3915398231
 H         -7.8514071305        0.4656220492        6.6733218082
 H         -9.1434259764        0.0731068277        5.9156555275
 O         -3.2909960517       -6.2821571920        3.1712744418
 H         -3.8547138834       -6.4688395329        3.9282095189
 H         -2.3853558447       -6.1713109871        3.5230600016
 O         -1.9720177003        1.6409726288        1.1934910210
 H         -2.4074328817        1.1423730037        1.8987588254
 H         -2.5305137672        1.5656338101        0.4095205614
 O         -1.7718228638        7.6444818686        0.6968089739
 H         -1.9317366447        7.5445032617        1.6448121320
 H         -1.1020954093        6.9452448797        0.5126318210
 O          6.2433486399       -0.0596969394        3.9801633085
 H          6.4458986032       -0.4570482298        3.1208818375
 H          5.2811805289        0.1427598521        3.9899597291
 O          1.8919690295        4.6500701832        5.8486146266
 H          1.4154707989        5.2516617895        5.2547501999
 H          2.7511014948        5.0429316211        6.0381348149
 O          2.7550360250        2.8181109322        4.0483533838
 H          3.7015886114        3.0465596195        3.9655500805
 H          2.3949377836        3.3338547024        4.7937630068
 O          3.6489113986        4.3672699594        0.7641622236
 H          2.8448355353        4.5534971438        1.2963870819
 H          3.9057340035        3.4841257602        1.0655689706
 O          5.3894104962        2.3322592296        6.5624292965
 H          4.7252956608        1.6806107328        6.8242692578
 H          5.3609880942        2.3676602307        5.5828658491
 O          8.9076592692        3.3273273787        3.0033442994
 H          8.0976361435        2.9116483628        2.6171238893
 H          9.2932658706        2.6253098604        3.5602039717
 O          4.7440629658        5.0017256270        5.9716716178
 H          5.6245198953        5.3040863059        5.7252684015
 H          4.8831792354        4.1149195199        6.3521469004
 O         -1.1053319044       -1.6301135486        7.4143098811
 H         -1.1808182892       -1.5440230467        6.4353260278
 H         -2.0347981868       -1.6778366245        7.7192112811
 O         -1.2877744531        1.1605118003        7.2616953168
 H         -1.1476083587        0.2230418294        7.4695652991
 H         -1.5448513345        1.1856109277        6.3177176045
 O        -10.9396445291       -1.0613600839        1.0600480932
 H        -10.2468011232       -1.3701884953        0.4340407396
 H        -11.5788038853       -0.5724011938        0.5404700385
 O          6.8594550136       -1.1731921910       -3.2616220862
 H          7.8071027306       -1.0636422426       -3.0763527867
 H          6.3623314283       -0.7854786826       -2.5212860729
 O         -2.2525330527        5.3772408439       -2.9834766569
 H         -1.7005671123        4.9851180292       -3.6831065401
 H         -1.7518005598        6.1333884489       -2.6305256170
 O         -4.1619671705        6.7854587859       -0.1594715981
 H         -3.4211014466        7.3888994619        0.0455438011
 H         -3.6805076173        5.9279923117       -0.2465241715
 O          6.2469386936        3.5556869787       -0.2099207851
 H          6.4700548349        4.3453909596       -0.7423160368
 H          5.4783921864        3.1290380803       -0.6308413565
 O         -7.9367684226        1.0397642702       -5.5903154291
 H         -7.0525202235        0.8661874735       -5.2457597052
 H         -8.1178352397        1.9679285828       -5.3940026680
 O          2.2838300593       -5.6134559559       -4.5059997657
 H          3.2062910427       -5.8907337179       -4.4600543780
 H          1.9729002735       -5.5683464588       -3.5739310328
 O         -3.1145488796       -5.8570050982       -4.9616688662
 H         -2.2219942557       -6.2388432971       -4.9427945034
 H         -3.0420798553       -5.0764614841       -5.5346990297
 O          3.3451537524       -1.4409947211       -2.1289659348
 H          3.5381437752       -2.3672611539       -2.3383516656
 H          4.1861232327       -0.9936734085       -1.9092453252
 O          9.0787166722        3.6798871644       -1.0425486023
 H          8.7732209540        4.0999055134       -1.8631350058
 H          9.0367646476        4.3526622265       -0.3346563034
 O          8.8821770843        5.3589473503        1.0577742732
 H          7.9532236100        5.6370526297        1.1142510340
 H          9.0335237117        4.8042575788        1.8326214443
 O          6.7573705873        5.8977160015       -1.3997600912
 H          5.9989471972        6.2231487931       -1.9138985829
 H          7.5012724005        5.8635608943       -2.0043490244
 O          0.1032493593        5.7512824910        0.3957199507
 H          0.8728532432        6.2107408619        0.7764314961
 H          0.3158617305        5.5335571059       -0.5332750352
 O          4.6776246755       -1.6236712685       -4.9810403144
 H          3.8999686687       -2.2029582140       -4.8359711204
 H          4.5468169295       -1.2012565226       -5.8461291227
 O          4.0562022426       -6.3590998097        2.9931950485
 H          3.2244132192       -5.8714832491        3.1580062974
 H          4.7542596416       -5.8683950658        3.4439014197
 O          2.8254325121       -2.0566925417        3.3254779035
 H          3.0824166232       -1.1406892532        3.5594110684
 H          1.8825896856       -2.0312196867        3.0966747996
 O          1.6378841490       -1.7318518612        6.9947465893
 H          1.4392764129       -2.4816327308        6.3816319915
 H          0.8263120312       -1.6154147825        7.5029830135
 O          8.7733295126       -4.9017484420       -1.6200605735
 H          9.4309119946       -4.2117245510       -1.4710706351
 H          8.1618582640       -4.5622784326       -2.2974211765
 O         -6.4861188167        2.5144736903       -1.5949393900
 H         -6.0765135879        2.1086070831       -2.3746983053
 H         -5.7751166402        2.6942753476       -0.9656758842
 O         -4.4113884096        5.0366155393        4.0448224832
 H         -4.9084067027        5.5104107106        3.3560944612
 H         -5.0670986856        4.5967005747        4.6298705271
 O         -9.0536554910        3.9145445246       -0.5627822197
 H         -8.9601207555        4.5875832016       -1.2516581334
 H         -8.2608605185        4.0199835160       -0.0033792901
 O         -7.7265331343       -0.0885031090       -2.7650431269
 H         -7.0019781868        0.3459280563       -3.2443188303
 H         -8.3899411699        0.6212457534       -2.6245455407
 O         -6.9861387363        4.3044290096        1.1422495212
 H         -6.1659911511        3.8140624030        0.8762116246
 H         -6.6692800559        5.1481826102        1.4951377946
 O        -10.7476127567        1.6377403375        3.5769480060
 H        -10.3038439990        2.2769694405        4.1454322306
 H        -10.6789183374        0.7855904873        4.0190940559
 O         -7.5888814041       -2.5818684881        5.6734747406
 H         -8.3926939254       -2.0745495264        5.4279007343
 H         -7.6666379062       -3.4111554592        5.1614972815
 O        -10.8371355700       -3.0153617947        3.0191138244
 H        -11.1464970599       -2.3020040544        2.4417124382
 H        -10.4231841030       -3.6392622919        2.3929037750
 O          6.1741738302        5.5888815924        1.6536196516
 H          5.7539984598        6.2942970469        1.1293516733
 H          6.0563267882        4.7782585067        1.1189730976
 O          6.9562935038       -1.9595316160        2.1631451711
 H          7.7137336201       -2.0255025119        2.7613255288
 H          7.3326194642       -1.8201819947        1.2751504149
 O         -9.4202273955       -4.3230217280        1.0839754191
 H         -9.8423353597       -4.2071228179        0.2124546369
 H         -8.7849982298       -3.5867487673        1.1776837834
 O         -8.3029212583       -4.5919962004       -3.3164679838
 H         -8.3858201381       -3.7447952891       -3.7999828429
 H         -7.5456583304       -5.0457050260       -3.7103829830
 O         11.5145513222       -0.4306902257        0.1206034272
 H         11.2842607924        0.3272450173       -0.4345317738
 H         11.7031926212       -0.0924450746        1.0048284901
 O         -8.8342221454       -1.4618302427       -0.5350871108
 H         -8.3917200405       -0.5918703898       -0.4034734122
 H         -9.3522749146       -1.3884649077       -1.3628679808
 O        -10.3600931193       -3.9503279418       -1.4528486316
 H         -9.8165796383       -4.3836529122       -2.1207253603
 H        -10.6092652569       -3.0916755097       -1.8233684233
 O         -9.6468130290       -1.1913183068        4.6567217685
 H         -9.1808644895       -0.8240092920        3.8671203187
 H        -10.1924793428       -1.9081200290        4.2820286434
 O         -0.8127819070       -6.1200408551        4.2523060673
 H         -0.9058349961       -5.7032361099        5.1155042190
 H          0.0612681017       -5.8565840685        3.9048144724
 O          5.3899008307        2.9355474524        3.9623946042
 H          5.9473120500        3.7296433188        4.0818638731
 H          5.7879699823        2.4326504952        3.2320513586
 O         10.4207242130        1.3701535688       -1.8937551202
 H         10.6746487088        2.2348452523       -1.5508661331
 H          9.5277546230        1.2330678587       -1.4840855915
 O          9.0814677086       -0.8537370883       -5.6559423556
 H          9.3907996678       -1.0288834575       -4.7504087094
 H          8.5169607605       -1.6172350630       -5.8688790958
 O         10.6144894603        2.2515912459        1.0674919204
 H         10.1157735658        2.9085307824        1.5783805092
 H         11.4156070001        2.0644801118        1.5651853128
 O          3.2994610616        0.4809606693        6.8633914892
 H          2.8837407169       -0.3553661166        7.1168959201
 H          2.5736695420        1.1381792209        6.8876406813
 O        -10.1919524945       -0.2730810665       -5.0163834955
 H        -10.9143002046        0.2493470071       -5.3617084522
 H         -9.3669922722        0.2285683501       -5.2087890052
 O         12.0387962613        0.6461187627        2.7876371338
 H         11.3515493051        0.8559833245        3.4436561501
 H         12.6744499502        0.0851172625        3.2314119667
 O          7.0670243029        5.0328624153        4.1778262457
 H          6.8184456787        5.4540412468        3.3388493461
 H          7.8806974441        4.5394161846        3.9827606634
 O          9.7880675913        1.1110683610        4.3353313568
 H          9.5721802572        0.2281443677        3.9941207725
 H          9.2025219263        1.1977907680        5.1124151583
 O        -10.6330912782       -1.3311925452       -2.4853917674
 H        -11.0989781755       -0.5842695451       -2.0539990204
 H        -10.4768209642       -1.0375093786       -3.3973576053
 O          1.6080843761       -5.2024313906        3.2309094669
 H          1.6281319066       -4.5777836985        3.9772543428
 H          1.4007575444       -4.6874346856        2.4255231133
 O         -4.0247104641       -1.2126951260       -5.8911982900
 H         -3.4694560477       -1.9688188742       -6.1585132229
 H         -3.5953793507       -0.8248802890       -5.0912542542
 O         -5.7354660095       -5.2223438968       -4.2918994488
 H         -4.9620838251       -5.6502785805       -4.6789772200
 H         -5.6530164405       -4.2649176411       -4.4971470435
 O          2.2417893456       -7.5966925287        1.2508037108
 H          2.7719810878       -7.5557184592        2.0533051757
 H          1.3730482236       -7.1884494070        1.4506366553
 O          5.0470700362       -5.7581677300       -3.7577708181
 H          5.1494820149       -6.4204473255       -3.0501526938
 H          5.8360603987       -5.1875145735       -3.7173787829
 O        -10.2287797143        1.8714065917        0.8839579017
 H        -10.4615183530        1.8638946144        1.8308219726
 H        -10.0677344225        2.7851905993        0.6156352409
 O         -0.9655250199        4.4739292276       -5.2061377464
 H         -0.4480881050        3.6887592085       -5.4596394680
 H         -0.3362914458        5.2108638052       -5.1894499921
 O         -5.9317591681        3.4115293549        5.5463197606
 H         -5.3140702273        3.2165316823        6.2658452409
 H         -5.9882276742        2.5736075463        5.0452643128
 O          3.8687109437       -3.1313373545        5.5883052319
 H          3.3857427202       -2.7658524362        6.3306793051
 H          3.4150692309       -2.8205930851        4.7793023792
 O          6.2236194980       -4.5961914350        3.3586775440
 H          6.9651117572       -4.6467423860        2.7487365797
 H          6.4055910249       -3.8720721197        3.9954621346
 O          7.7134267959       -1.5940434815       -0.4033773159
 H          6.9592048784       -2.1908797475       -0.5995796470
 H          7.4325263097       -0.7140570114       -0.6796040195
 O         -8.2752108094       -2.1213471603       -4.3694906767
 H         -8.9729692250       -1.8144996562       -4.9542642884
 H         -8.1651757060       -1.4006419109       -3.7008719488
 O          9.3622766535       -1.5328893478        3.4690117360
 H          9.2372936190       -1.7238547939        4.4322910227
 H          9.6747397483       -2.3482055262        3.0325486393
 O         -1.3406980612       -4.3128018520        6.4733391985
 H         -1.1933064018       -3.6146505842        7.1267132676
 H         -2.2785586198       -4.2051477932        6.2052282810
 O          7.7112866235        0.9067707069        6.0143964921
 H          7.1940053485        0.5721499568        5.2539633532
 H          7.0886301498        1.4852799130        6.4825135478
 O         -3.8752326351       -3.7828046304        5.7792431278
 H         -4.5195666504       -4.5045544118        5.6506296388
 H         -3.7623617214       -3.3804234779        4.8944868153
 O         -8.6998586009        3.0957722439        5.0617122315
 H         -8.7395281328        2.2740967904        5.6053841261
 H         -7.8837597616        3.5253727629        5.3504720017
 O         -6.3469682101       -0.5492935619        6.9559189935
 H         -6.7520606178       -1.3776700237        6.6499669590
 H         -5.7148466090       -0.8007119168        7.6384880842
 O          3.8515949114        5.5910678667        3.3383245564
 H          4.6514791085        5.5259108483        2.7975559364
 H          4.1147086224        5.4486314069        4.2571640085
 O         10.1445198308       -2.5496007164       -0.7986584933
 H          9.2510829305       -2.2129400434       -0.5632060815
 H         10.7637499519       -1.8826022321       -0.4461907873
 O          6.7235615061        0.3874190984       -5.5405937828
 H          6.5098451510       -0.1244729246       -4.7339513345
 H          7.6331916508        0.1048856214       -5.7507073664
 O          8.8196752896        0.3131266631        1.5416332237
 H          9.5974661895        0.9024609864        1.4607454100
 H          9.0628522093       -0.4169908423        2.1288295587
 O         -4.7772619247        3.0449731348        0.5987558776
 H         -4.0796462056        3.6219642662        0.2184706348
 H         -4.4285685782        2.7676321485        1.4728729228
