  117
       -193.22652490
 H         -2.6069490058        0.5448590801       -1.3203534787
 C         -2.1274436222        0.0711583986       -0.4605649671
 H         -2.0143383566        0.8105991961        0.3346396898
 C         -0.7616468008       -0.4555812239       -0.8586436014
 H         -0.1566477914        0.3737516008       -1.2062813442
 H         -0.8651532282       -1.1894841180       -1.6559652032
 O         -2.8990134552       -1.0233737164        0.0076731537
 H         -3.6813975899       -0.6504857537        0.4582371131
 N         -0.1605060432       -1.0977259167        0.3241126218
 H         -0.3109985508       -0.4937807387        1.1723893306
 H          0.8526356821       -1.3243191213        0.2281573364
 H         -0.6688027780       -2.0009572676        0.4752846848
 O          2.3953800162       -2.0306253694        0.5247045054
 H          2.5463008515       -1.9791904050        1.4880375100
 H          2.3135973128       -2.9846323056        0.3116489407
 O          6.7296440566        1.8031759551       -0.1211338506
 H          6.5251531042        1.1142169336        0.5378202137
 H          6.4943507548        1.4139626353       -0.9786781070
 O          2.7087002027       -1.6943235816        3.1759497590
 H          3.2674606043       -2.1707863009        3.7896279236
 H          1.7871508655       -1.6982385705        3.5767803815
 O         -1.6974883386       -2.6310271292       -3.3918856761
 H         -1.6893846558       -1.7813430050       -3.8652662942
 H         -2.5782314632       -2.6889483604       -2.9839197661
 O         -3.2789006885       -0.2684542583        2.7112979813
 H         -4.0128360310        0.2168466737        3.1051506098
 H         -3.5025328947       -1.2223092501        2.7132840109
 O         -3.7171497411       -4.2006225829       -0.0366749926
 H         -4.1309788363       -5.0535558795       -0.1711952484
 H         -3.9800106708       -3.6295531446       -0.7891807162
 O          0.3116520450       -1.6923276151        4.1103982173
 H         -0.0991816746       -0.9122469496        3.6950282129
 H         -0.1932429932       -2.4608484821        3.7957920029
 O          3.3628205568        0.7101963155        2.0835600927
 H          2.9092177267        0.6780490616        1.2130701640
 H          3.0380242550       -0.0553457182        2.5900345237
 O          1.4520326739        3.0791682982       -3.0386812212
 H          2.3559966660        2.9437340304       -2.6864175204
 H          1.4932405324        3.7903447530       -3.6785064615
 O          0.4363678135       -3.3791183259       -1.9956547014
 H          0.9994983989       -2.5930045643       -2.0963331799
 H         -0.3078424809       -3.2437086068       -2.6215543723
 O         -5.0605606392        0.5549008921        0.5101835825
 H         -5.6171367789        0.4681602568        1.2894750672
 H         -4.5104139145        1.3463113934        0.6852873212
 O         -1.0654375212       -3.6318176579        0.2677808986
 H         -0.5730877696       -3.7258235594       -0.5702131029
 H         -2.0018173124       -3.8369919988        0.0881944953
 O         -4.0287193652       -2.3700492874       -1.9675632401
 H         -3.5446624718       -1.8390495276       -1.2899113770
 H         -4.7380443692       -1.7825784343       -2.2611300127
 O         -0.9843351035       -3.8357501720        2.9414176309
 H         -0.8277451811       -4.7246822224        3.2613262704
 H         -0.8827104759       -3.8576078822        1.9694744172
 O          2.2127515576        0.8878235875       -0.3387430652
 H          1.3967774034        1.4317087422       -0.3184902858
 H          2.8535102350        1.4464312279       -0.8321143212
 O          0.1507619298        2.5751100346       -0.7046674135
 H          0.4854016704        2.8799202030       -1.5662409853
 H          0.3591979211        3.2732334548       -0.0573366036
 O          5.5354187551        0.5475890928       -2.3051969072
 H          6.0012022359        0.1562424660       -3.0442551677
 H          5.2055587145       -0.1970593592       -1.7422731744
 O         -3.4147861728        1.5200985714       -3.0441993100
 H         -4.2144651067        0.9970643895       -2.8805344178
 H         -2.8415355221        0.9783520058       -3.6108960708
 O         -2.5476386997        3.3242323846       -1.1307191614
 H         -2.9234680098        2.8167529547       -1.8692375390
 H         -1.6348389993        3.0143586459       -1.0310321356
 O          2.1100761978       -4.5837057706       -0.2251666326
 H          2.8092357932       -5.1234819056       -0.5951061452
 H          1.4875948580       -4.3901814226       -0.9472477700
 O          5.1005915862        3.8150478007        0.1252228998
 H          5.5928115061        4.6356826167        0.0902973100
 H          5.7800530754        3.0812675251        0.1197624101
 O         -0.7339353875        0.2752000749        2.5671276324
 H         -0.7140035693        1.2467627821        2.6068672775
 H         -1.6926589348        0.0463507912        2.6609500246
 O          0.8717586101        4.2797978128        1.2681088575
 H          1.7585427074        3.9620347542        1.6070272572
 H          0.9012922053        5.2369537904        1.2808257980
 O          4.7348996930       -1.3642873162       -0.6706155119
 H          5.2857147243       -1.1096199012        0.0847516993
 H          3.8583879095       -1.5601560618       -0.2790763612
 O         -3.6366623361       -2.9188346014        2.5357073191
 H         -2.7767042124       -3.2474860647        2.8363433948
 H         -3.7627262888       -3.2784005787        1.6466486785
 O         -5.3130316336        1.6341284759        3.1434715672
 H         -5.7401183437        2.1765082207        3.8066640244
 H         -4.7921841779        2.2275281685        2.5777285298
 O         -5.5603745644       -0.0371343518       -2.1065232220
 H         -6.4417335793        0.2575308583       -2.3381469146
 H         -5.4279864005        0.1898101124       -1.1640654965
 O         -3.5698694869        2.7323706733        1.2481579763
 H         -2.7486258167        2.7462165307        1.7615898028
 H         -3.3124454349        3.0729495865        0.3593727504
 O         -1.0758766027        2.9755605682        2.6183379458
 H         -0.4009215118        3.4703014466        2.1089578377
 H         -1.1172198281        3.3764223681        3.4876526856
 O          0.8280710917        0.5419946246       -4.0401813344
 H          1.2801437147       -0.0811787747       -3.4478142208
 H          0.9944130339        1.4344726202       -3.7002963206
 O          2.0710457667       -1.0899072860       -2.1757659631
 H          2.1317715688       -0.4408499684       -1.4403275525
 H          2.9613586142       -1.4254687245       -2.2994262799
 O         -1.6896044981       -0.1084820345       -4.4972673147
 H         -1.8091453689       -0.0704377577       -5.4472383118
 H         -0.7538649054        0.1622653269       -4.3278888619
 O          3.1923355843        3.4552362309        2.0895314101
 H          3.2415763318        2.5006274727        2.2650675418
 H          3.8878445922        3.6380048859        1.4341651731
 O          5.8164274350       -0.1336331342        1.5671266155
 H          4.9291166621        0.2372365250        1.8085791366
 H          6.2861373438       -0.2975675412        2.3847654144
 O          3.7556446218        2.5103482581       -1.8004331933
 H          4.4308871965        1.8946417495       -2.1372333736
 H          4.2073682351        3.0990614810       -1.1628275664
