  281
       -473.11247354
 H          0.3358435575        0.2755376660       -1.2300381836
 C          0.5604758844       -0.2967217392       -0.3348417204
 H          0.0625665963       -1.2627230070       -0.4024189536
 C          0.0136673559        0.4175377484        0.8963028089
 H          0.5116561825        1.3701559584        1.0425597949
 H          0.1592822822       -0.2066816949        1.7750635031
 N         -1.4136406401        0.6610525688        0.7633279351
 H         -1.5836968105        1.2397062537       -0.0504221415
 H         -1.8893128540       -0.2222789119        0.6340882214
 O          1.9639429001       -0.4804661213       -0.3130663622
 H          2.1674887033       -0.9968899234        0.4999067542
 O         -0.5329983567        1.8858899102       -5.6052552863
 H         -0.5841699246        2.6117884714       -4.9626371389
 H          0.3204570183        2.0076696062       -6.0741457143
 O         -0.4520167417        4.0342213891       -3.7056089992
 H         -0.3784718129        4.0511556401       -2.7317593244
 H          0.3521522567        4.4388112472       -4.0361292729
 O         -1.4164107525       -1.7353908352        2.6714482305
 H         -1.7319451575       -1.2765460091        3.4710177675
 H         -0.9716477858       -2.5420359653        3.0072503794
 O         -1.8108546883        1.9624306089        2.9933507938
 H         -1.2530995861        2.7352162613        2.8043973685
 H         -1.7919003187        1.4248661208        2.1497555201
 O          4.7546724203       -0.7247534612        3.6761565735
 H          3.8117401985       -0.5260517411        3.6334213360
 H          4.8075941392       -1.7077374116        3.7079569284
 O          1.2861437124        6.3285540104       -0.5181685584
 H          1.9910805221        6.0176622133        0.0823332802
 H          1.7285093416        6.3082765575       -1.3924855714
 O         -3.1142713087        3.0606108489       -3.4036889628
 H         -3.7816512963        3.2033803705       -2.7051901385
 H         -2.6204800444        3.8721554312       -3.5425724410
 O          5.3133049957        2.2467416590       -4.6404253912
 H          5.5189902958        2.7761822668       -5.4117707724
 H          4.7657263280        1.4672519785       -4.9770129962
 O         -2.5675441698        5.1671026564        2.4126966379
 H         -1.9074364545        5.8276124221        2.1725202748
 H         -2.3738566014        4.9375723348        3.3551302260
 O         -4.0984595759        1.4568078585        1.2430110457
 H         -4.7038428348        2.0409123250        1.7217357540
 H         -3.3732148839        2.0409848207        0.9738403996
 O         -2.9779444452       -2.4491877279       -0.4835720501
 H         -3.1327455916       -2.8044696896        0.4131992919
 H         -3.2939433313       -3.1457722412       -1.0818154917
 O          3.3272868910        1.1900280497        1.6744364011
 H          3.8170373435        0.4348053807        1.3045525970
 H          2.7718016736        0.8204505566        2.3710305835
 O         -1.0194583306       -4.6117240298       -3.1933022551
 H         -0.6648822812       -4.4852575785       -4.0801194692
 H         -1.0052726766       -3.6851859420       -2.8239904214
 O          1.0245020088       -5.6145324947        1.3316309768
 H          0.9230672222       -5.4574880173        0.3681251700
 H          1.0206314869       -6.5616223559        1.4645708110
 O          5.0309662535       -2.0565747017       -5.0306539604
 H          4.2549563255       -2.5806625163       -4.7555861359
 H          5.6594112019       -2.0723500292       -4.3015236094
 O          1.9869151491        2.1697649808       -6.4590968761
 H          2.2642459625        2.7551474225       -5.7287304662
 H          2.5678295740        1.3992074740       -6.3988780218
 O         -7.4662562210       -3.3385630607       -0.4159907150
 H         -8.0092446235       -3.0941668125       -1.1692091692
 H         -6.8293290582       -2.5894856800       -0.3267084871
 O         -5.1687183120       -2.5409489787       -2.6870326396
 H         -6.0361400743       -2.3785222798       -3.0689467947
 H         -5.2353146144       -2.1427396252       -1.7916940811
 O          0.8783886813       -5.2220857085       -1.3553259204
 H          0.1664989426       -5.1732600293       -2.0248249357
 H          1.2341010838       -4.3060400834       -1.3532594058
 O          2.8882797448        2.1872677763        4.8051463817
 H          2.0881997983        2.6524972789        5.1144547119
 H          2.5866945212        1.3305298995        4.4784721303
 O          2.8356750570        5.6821169575       -2.5933724324
 H          3.4985953019        5.2396341730       -2.0314565493
 H          2.7252077760        5.0666979850       -3.3356013542
 O         -1.0488223519       -2.1586658982       -2.3060267234
 H         -1.5584872837       -2.2193190394       -1.4798010846
 H         -1.6882736232       -1.8432650535       -2.9922402772
 O          1.7899588579       -2.1310770043        1.7715810510
 H          1.0081941884       -2.5653590779        1.3842619626
 H          2.5071152687       -2.7981573355        1.7317395538
 O         -2.7870552333       -0.9262450245        4.8511305070
 H         -2.9736721648       -1.8818120010        4.8920698447
 H         -3.6327222362       -0.4946862560        4.6480994866
 O         -4.7196823113        3.2718880946       -1.2324125545
 H         -3.9402852019        3.3230265716       -0.6411946314
 H         -5.3824985946        3.8572914355       -0.8352896811
 O         -0.0904293305       -0.3042418107       -4.1834863707
 H         -0.2082920456        0.4075629301       -4.8504763542
 H         -0.5983186749        0.0286202898       -3.4199699336
 O          2.0941220002       -3.0276125789        4.7304885471
 H          2.1074515091       -2.0644154407        4.6798847062
 H          2.9927749646       -3.3162159211        4.5208611506
 O          1.5952324539       -2.7062234997       -1.8887630058
 H          1.9602126646       -1.9631022261       -1.3785372887
 H          0.6945644016       -2.4361608274       -2.1371017602
 O         -0.2434535593        4.1906907933       -0.9498722164
 H          0.1690924700        5.0747582395       -0.8352554900
 H          0.3744737567        3.5916819570       -0.5022885718
 O         -3.9493274500        2.4537463695        4.5655302131
 H         -4.4740794692        1.6562965747        4.7104867927
 H         -3.2105893639        2.1848537623        3.9813091564
 O          2.7743599168        3.4497816916       -4.1812247208
 H          3.6763656874        3.1004636899       -4.1173697705
 H          2.2532027854        2.9622640140       -3.5077487922
 O          1.8439679281        2.9594824610        0.3696243204
 H          2.4367034407        2.2672318827        0.7517642992
 H          2.3574451410        3.7940444287        0.4869547302
 O          3.1623161075       -5.6943658048       -2.8833095707
 H          3.0521605174       -4.9853647738       -3.5432878042
 H          2.3184797803       -5.7491970756       -2.4061540506
 O         -3.5355988982        0.1198476512       -1.2613668980
 H         -3.9174650885        0.5917219907       -0.5058592909
 H         -3.4453438205       -0.8144195805       -0.9962346814
 O          5.4959844489        1.3854956673        5.2336926162
 H          4.6137698487        1.7836859015        5.3067387600
 H          5.3451557241        0.5220287294        4.8056592703
 O         -3.1527780140        0.9319331205       -5.1078860698
 H         -2.3344561854        1.1129711047       -5.5879079186
 H         -3.2593424751        1.7036547391       -4.5263595204
 O          6.6979746850        2.9356556305       -2.2160272246
 H          6.6114828476        2.1569672246       -1.6363096818
 H          6.1473214376        2.7525962712       -2.9899767390
 O          8.6578031606       -1.0771051756        1.7963535447
 H          7.8156359368       -0.5532275645        1.8508507145
 H          9.3597331793       -0.4848192111        2.0652845448
 O          6.2983541712       -3.1507444697        0.4234023605
 H          7.0284971781       -2.8458501793       -0.1338766417
 H          5.6961991488       -3.6678597041       -0.1403440091
 O         -3.3768234758       -4.0307293725        1.6693639584
 H         -4.2172763212       -4.3607375695        1.2800660311
 H         -2.7204795048       -4.6902393826        1.4133878892
 O         -1.8121407897       -5.4786107642       -0.1098926334
 H         -2.4748108398       -5.2713779787       -0.7860571098
 H         -1.1596645238       -6.0393115213       -0.5339731666
 O         -8.5932157368        2.9031535780        0.9342862382
 H         -7.9685788920        3.5608910882        0.5952485610
 H         -8.0863249573        2.3976724658        1.5921316532
 O         -0.4022969568       -3.1526168796        0.4904606933
 H         -0.9896178092       -2.6794778579        1.0903758917
 H         -0.8126110826       -4.0126716971        0.3175134699
 O         -4.9760647959        3.8118193777        2.4993024983
 H         -4.2242471292        4.4162200530        2.4146556454
 H         -4.8291664709        3.3714603726        3.3622563305
 O         -8.9386425924       -0.6436223017        1.7767002551
 H         -9.7474060618       -0.5244594849        2.2733860925
 H         -8.6268688019       -1.5743364746        1.9652894094
 O         -2.9787472425       -3.6308342039        4.3427709519
 H         -2.0785169029       -3.9438847381        4.4787669586
 H         -3.1342540490       -3.7446904118        3.3842850973
 O          4.4777581516        4.0382511502       -1.1282032897
 H          5.3933729485        3.9016857769       -1.4288174806
 H          4.0785086568        3.1425761100       -1.1571056579
 O          4.4066994869       -1.1599679216        0.7273810682
 H          4.2494906568       -1.2379101182       -0.2295799077
 H          5.0798440474       -1.8289272301        0.9176059086
 O          8.6085485718       -2.0944842106       -0.6955470968
 H          8.6641985906       -1.6703244189        0.1918663293
 H          9.3179455704       -2.7364368336       -0.7301584111
 O          6.7987585197       -1.3327599809       -2.6994626948
 H          7.5416723185       -1.6941170296       -2.1993937107
 H          7.1580899048       -0.5977376300       -3.2476394071
 O          3.3861672379       -4.2208514120        1.4689214302
 H          3.7199622429       -4.2252753101        0.5462515303
 H          2.6298639875       -4.8291853046        1.4982447019
 O          3.2129977734        5.1351421368        0.9467764873
 H          3.9046341194        4.9152160200        0.2961878722
 H          3.5482510659        4.8192363320        1.8197866229
 O         -2.0796883594        4.5194166555        4.9435947984
 H         -2.7636429106        3.8591162798        5.1189147530
 H         -1.2254136643        4.1047024700        5.1539865587
 O          4.1322770520        4.0436833143        3.1524615243
 H          4.9966524028        3.6261922593        3.0151421089
 H          3.6211587265        3.4027385518        3.6741888979
 O          6.4747841163        0.3731628538        1.8943295225
 H          6.5431124647        1.2702259870        2.2686542225
 H          5.7775179143       -0.0752960716        2.4202041260
 O          2.7171665632       -3.3346015910       -4.2291235635
 H          1.9209446480       -3.2383505433       -4.7720897753
 H          2.4419577273       -2.9961052455       -3.3493867671
 O         -8.0632856591       -3.0439450735        2.2524691265
 H         -7.2040232318       -2.9590627524        2.7018851941
 H         -7.8818322013       -3.3441993757        1.3454567917
 O         -3.5601072425       -4.6042630961       -2.1509260802
 H         -4.1957351226       -3.9947293097       -2.5745834757
 H         -2.7985612853       -4.6806971889       -2.7531961640
 O          0.1914553207        3.7415346298        2.4153897344
 H          0.0566474738        4.6892250116        2.2511680006
 H          0.8204058970        3.4293521919        1.7377494182
 O         -5.3224810842       -4.9722152146        0.1273152264
 H         -4.8783553593       -5.0665736421       -0.7220177763
 H         -6.1611576956       -4.5158915315       -0.0541220365
 O         -2.5056858466        3.4649363608        0.3226711992
 H         -1.7255926751        3.7339265712       -0.1964799865
 H         -2.5321419263        4.0666784605        1.0933539742
 O         -1.3696594776        1.2718355603       -2.3493596619
 H         -1.8270087293        1.9842565918       -2.8321379185
 H         -2.1083177189        0.7517086082       -1.9755201121
 O          2.4076657670       -0.1235356292       -3.3595548871
 H          2.3461667027        0.6979966253       -2.8402176758
 H          1.4906633414       -0.3072935391       -3.6674800659
 O         -0.1408885491       -3.9748461635        3.4685779428
 H          0.6460825403       -3.6879201283        3.9730338780
 H          0.2003113003       -4.5093823110        2.7384801484
 O         -5.3374303093        0.0912765599        4.2163720131
 H         -5.6631317636       -0.8212211972        4.2228335723
 H         -5.8494524105        0.5235868930        3.5016499814
 O          6.5723299714        2.7080932991        3.2648731759
 H          7.3013874809        3.2443121744        3.5734562995
 H          6.2043745399        2.2366776920        4.0687221805
 O         -8.8750427574        0.7218076237       -0.6437989466
 H         -8.9672508267        0.1015293735        0.0993153885
 H         -9.0042403721        1.5989268512       -0.2300345179
 O          1.9388798106       -0.2973200087        3.6824716353
 H          1.0536053348       -0.0752750282        4.0395297158
 H          1.8015665026       -0.9897730791        2.9955245252
 O          3.8685660125        0.2966295793       -5.4896125147
 H          4.3849869353       -0.5361705249       -5.5328463148
 H          3.2734587623        0.1486337092       -4.7120694257
 O         -3.9620047901       -1.1647606279        1.8736911927
 H         -4.0003309224       -0.1895819514        1.8364044175
 H         -3.0530923664       -1.4081743612        2.1262511409
 O         -5.4572810224        0.4021150366       -3.2425392081
 H         -4.7616956313        0.3468014640       -2.5626036718
 H         -5.0113045579        0.5556616266       -4.0776715245
 O         -5.6266612046       -2.5621634697        3.4729476154
 H         -5.0202751253       -2.1362932638        2.8302565387
 H         -5.0927296643       -3.1895548887        3.9661339582
 O          4.1820626479       -1.5782676570       -1.9521296463
 H          5.0700235907       -1.4541888862       -2.3161954893
 H          3.5624463831       -1.0557729500       -2.4974670972
 O          4.2897655761       -4.1414777481       -1.0495900907
 H          4.1021314572       -3.2687513305       -1.4423436410
 H          3.9915773511       -4.8085085519       -1.7090047898
 O          7.6392741261        0.8432507344       -3.9850196305
 H          7.9647671811        1.4862474991       -3.3452153359
 H          6.8259572706        1.2373966114       -4.3462604057
 O         -7.6299400097       -1.1488183219       -2.4860645378
 H         -8.2511726589       -0.5908960878       -2.0052380981
 H         -6.9470599945       -0.5348913113       -2.8085698751
 O          6.2604184384        0.6545652321       -0.7792399881
 H          6.4661748090       -0.1713114943       -1.2408588586
 H          6.2878401089        0.4839449947        0.1843737811
 O          1.3441941187        2.1737145046       -2.3275392368
 H          0.3889496034        2.0196915048       -2.3349486643
 H          1.6244873916        2.3786683482       -1.4211941282
 O         -0.4223441965        0.5328216865        4.6769777487
 H         -1.0621176285       -0.0186301714        5.1420261964
 H         -0.9629390889        1.0094206319        3.9924775041
 O          4.7210828203       -3.3773093234        3.6980878389
 H          4.3339364005       -3.7228985583        2.8735227997
 H          5.6811322712       -3.5362741807        3.6163370895
 O         -6.2327884273        1.0660380436       -0.4413469857
 H         -7.1646234445        1.0402378284       -0.7396380829
 H         -5.7758907080        1.7902623359       -0.9007431382
 O         -2.9318652368       -1.5485590406       -3.9975530276
 H         -3.7928105658       -1.7727641662       -3.6087574998
 H         -3.0175440404       -0.6690826226       -4.4096292079
 O         -5.6079869064       -1.5005638306       -0.2307816159
 H         -5.8859707177       -0.5717021080       -0.3746630791
 H         -5.0289384040       -1.4954914665        0.5519624722
 O          0.1209187206       -2.8652881164       -5.1468052348
 H         -0.2169128578       -2.7667214744       -6.0362698603
 H         -0.0271942962       -1.9997575956       -4.7139889729
 O          3.7417415577        1.4390544722       -1.3240355600
 H          4.6414085340        1.1166740562       -1.1357806874
 H          3.1472822448        0.8261771536       -0.8639527676
 O         -6.4476166291        4.6231333699        0.4301575148
 H         -5.9897005855        4.2825460999        1.2295047169
 H         -6.6250682841        5.5490094826        0.5941610860
 O         -6.8783395024        1.0674720089        2.1946960715
 H         -6.4823067932        1.0594420535        1.3003902094
 H         -7.6029715108        0.4161019754        2.1495493017
 O          0.3652113717        3.1514891518        5.0738840991
 H          0.3928088246        3.3834749476        4.1250560571
 H          0.0547027339        2.2300370126        5.1165960012
 O         -0.1392585250        6.4306704329        1.8113038298
 H          0.2380211265        6.5525925535        0.9238556150
 H          0.3727538930        6.9793515581        2.4068170027
 O          7.3109396080       -3.4639109102        2.9089492188
 H          7.8755314232       -2.6843907227        2.9024384660
 H          6.9518968216       -3.5072333794        2.0034492582
