  609
      -1033.94798069
 O          1.5204829548        2.0041463005       -5.2345245395
 H          1.7107634311        1.3302861924       -5.9086910482
 H          1.3342773393        2.8422626982       -5.7045849771
 O         -2.3813341405       -4.2692222903       -5.5956998348
 H         -2.3915087689       -3.4835807129       -5.0067321719
 H         -1.4680502998       -4.6012747260       -5.6147818880
 O          5.9093645886       -4.2345743429        3.5190122057
 H          6.2889429530       -3.7933024551        4.2928246135
 H          5.8998775486       -3.5422002838        2.8105799441
 O         -8.0790035391       -0.0401983770       -2.1052119608
 H         -8.8310745196       -0.6350584546       -1.9390994456
 H         -8.4212838981        0.7076930510       -2.6283777232
 O         -0.3437164717        3.2199981393        2.8005143782
 H          0.5632090581        3.5036157228        2.5651013460
 H         -0.2241788053        2.6960557106        3.6188678105
 O         -2.6731016240        0.2116394799        2.9222602871
 H         -2.3005065768        0.8197375166        2.2722983436
 H         -3.2459866723       -0.4079417639        2.4327810255
 O          0.7329181788       -3.9764174954        0.5111817961
 H          0.8907748015       -4.4749043759        1.3283688736
 H          0.0776334385       -4.5182153483        0.0077410000
 O          4.4996953939        5.6411853853       -0.4493483635
 H          4.6265897236        4.8286278276       -0.9667178022
 H          5.1189644965        6.2893896350       -0.8471928049
 O         -4.1173819528        1.5163271199       -0.5901139828
 H         -3.4778136879        1.4233861147        0.1193159153
 H         -4.5363929205        2.3864240984       -0.4560446784
 O          2.5371793667       -0.0388075410       -2.8178645561
 H          2.4853002627       -0.7934095251       -2.2128346798
 H          2.4604872720       -0.4234909176       -3.7006760143
 O         -0.6980012065        3.1743201275       -3.9206448813
 H         -0.2757712639        4.0526062377       -3.9714101356
 H         -1.3052509027        3.2088291500       -3.1527984693
 O          0.9366155916        2.9988175000        0.3109940950
 H          0.9330293235        2.6042759172       -0.5790052332
 H          1.3535434531        2.3632518288        0.9088478987
 O          3.0112164293       -3.3590160359        2.6256939908
 H          3.6647012494       -2.7860689195        3.0812068678
 H          2.1598593561       -3.1230501818        3.0168877818
 O          2.6124283445       -5.6859766395       -5.1467142327
 H          3.2832246545       -5.1846291350       -4.6249470973
 H          2.4567340952       -6.4897139139       -4.6461805686
 O         -1.0962446892        4.8673725255       -0.0383817717
 H         -0.3495686223        4.3677943638        0.3212874836
 H         -0.7236032104        5.5401537968       -0.6362367162
 O          2.0213878905       -0.1253595835       -6.8557673560
 H          2.9196513533        0.2336471261       -7.0435750360
 H          2.1246869623       -0.7394343049       -6.0904916930
 O          0.9379517391        4.2878574481       -6.5401879620
 H          0.8855372907        4.9175105392       -5.8060462986
 H          0.0126367020        4.0319730348       -6.7254236918
 O         -0.0672062733        0.0111748828       -4.1802540028
 H          0.2949455658        0.8582098364       -4.4731748554
 H         -0.8036947055        0.1880292243       -3.5741563949
 O          0.5076560637        1.8483671989        4.9019721999
 H          0.4774211264        2.2575909712        5.7859146771
 H          1.4599552372        1.8295073597        4.6778363839
 O         -2.1956770418        0.4591059979       -2.5601644964
 H         -2.1279799413        1.2936760048       -2.0745863127
 H         -2.7352497311       -0.1522191452       -2.0325953316
 O        -12.0967158851        0.3085897960       -1.3614680121
 H        -11.8371582146        1.1419135126       -1.7664343201
 H        -12.1687978056        0.4863561918       -0.4063267404
 O         -3.0368878231       -4.2523263125       -1.9072727218
 H         -3.8227053657       -3.9116835185       -2.3550157945
 H         -2.8951477593       -5.1539301701       -2.2401393910
 O         -4.2548228941       -1.3566617347        1.4026079365
 H         -4.2011231693       -1.2176170926        0.4343265653
 H         -4.3304387883       -2.3088145011        1.5485623399
 O         -2.2378156004       -2.8369587686        4.4131435598
 H         -1.9401177197       -2.9160184201        3.4834568589
 H         -3.0124805584       -2.2571273192        4.3833602837
 O         -3.7780695653        2.9690780147        2.5981623681
 H         -3.2162567592        3.2165644286        3.3685667893
 H         -3.1470710548        2.7880176773        1.8823926249
 O          2.1512972269        1.0912867608        2.0577650520
 H          2.8593416247        1.7497591367        2.1020131202
 H          2.0901518857        0.6821878378        2.9394644293
 O          4.0935676761       -2.3118380562       -2.3339878075
 H          4.0926952809       -3.1102377935       -2.8981699333
 H          3.9086190313       -2.6524695206       -1.4417121566
 O          1.3154420653       -7.1310993148        0.0740582243
 H          0.5471846959       -7.5887995385        0.4272705061
 H          1.7961070563       -6.7498152158        0.8274938178
 O         -3.9394896926       -1.2889746622       -1.2667320460
 H         -4.1250500944       -2.2377787070       -1.2005370968
 H         -4.5928398431       -0.9396419997       -1.8978305250
 O          7.9660789678       -1.3807360917       -5.8825184279
 H          7.0511233008       -1.5297770008       -6.1653641003
 H          8.1509836685       -2.0140205771       -5.1742899100
 O          6.9178521457       -6.2198194548        1.9515796189
 H          6.5309658141       -5.6244096638        2.6192676560
 H          7.7169233889       -5.7582710059        1.6610496567
 O         -6.7395816426       -1.0258304342        2.4283723909
 H         -7.3968639173       -0.6325286723        1.8190997270
 H         -5.8842461290       -0.9678880997        1.9561289980
 O          4.6254839735        5.2014326756        2.2502306482
 H          3.8109127961        4.6608859730        2.3198957351
 H          4.6816637017        5.4561995769        1.3134651651
 O         -7.7392075211       -2.7058547811       -3.5695375180
 H         -8.1831512158       -1.9333220333       -3.9801610368
 H         -7.6183251290       -3.3330090321       -4.3085592956
 O         -3.7693032481        5.5241548454        0.9876730967
 H         -3.0276992758        5.4460457264        1.6291695969
 H         -3.4014277220        5.9543639547        0.1916228093
 O        -11.1052243863        3.0883797472       -1.9914021051
 H        -10.4210032535        3.8046055798       -1.9294517615
 H        -11.9527978953        3.5241121602       -1.9041830248
 O          4.7364282495       -6.1856987553        0.4104789879
 H          5.5892052685       -6.2512698321        0.8933049782
 H          4.0449817925       -6.3477538142        1.0734666213
 O          0.6175201094       -3.0364355091        6.6913080528
 H          0.6888779850       -2.9762662368        5.7146096465
 H         -0.2526098013       -2.6365751623        6.9083275393
 O         -0.2457897448       -5.8361775390       -3.2894390384
 H          0.5296318234       -6.4048072778       -3.2016275528
 H          0.0892318012       -4.9456704641       -3.5271764071
 O          1.0492526574        2.1296379042       -2.2185927088
 H          0.4407295269        2.4009928865       -2.9321258531
 H          1.5192812079        1.3300090590       -2.5238610296
 O          3.9149283163        2.2862126600       -4.1584474841
 H          3.0178767189        2.1405205565       -4.5293122725
 H          4.3690697979        1.4275882121       -4.1822097129
 O         -0.3859310209       -2.1445264381       -5.6317720891
 H         -0.2470475971       -1.2956624260       -5.1554934864
 H         -0.0380368756       -2.8260785833       -5.0437904837
 O          2.2473079234        3.9887576651        2.7468270905
 H          2.6187720210        3.3776329674        3.4131699749
 H          1.9365183947        4.7759730092        3.2476289624
 O         -4.9678563600       -6.4257021371        1.8839151443
 H         -4.4690848446       -6.9525719759        2.5122508980
 H         -4.6015521655       -6.6303217487        1.0003485204
 O         -3.7403964835        1.1759666271       -4.6264412144
 H         -3.3976723969        0.6687754540       -5.3730952997
 H         -3.1975025882        0.9210916819       -3.8539056621
 O         -0.9843401366       -5.5032764567       -0.7238256972
 H         -1.0016813590       -6.3776090909       -0.2968698937
 H         -0.7483149747       -5.6416396746       -1.6631118827
 O          0.3669697921        6.8600590442        1.8379705559
 H          0.9755957550        6.3707636231        1.2471794555
 H          0.7575682216        6.7872706425        2.7272950658
 O         -4.3111767267        3.8576107411       -2.4046625275
 H         -4.9066127885        3.2224591571       -2.8549377796
 H         -4.8559350826        4.5901887547       -2.0639500389
 O         -1.2291952442       -2.3337957690       -2.1195923216
 H         -1.7987722132       -3.1068153798       -1.9348334530
 H         -1.2359956503       -1.7874088833       -1.2899324773
 O          4.1236551791       -3.5666144044        0.1375489067
 H          3.6778355433       -3.3661423423        0.9755293620
 H          4.1662447328       -4.5369079239        0.0836838197
 O          2.0879931977       -7.1759745159       -2.5196207220
 H          3.0544267217       -7.2600872711       -2.5043001573
 H          1.7948677114       -7.3695355484       -1.6097037362
 O          3.7597491868       -0.8894423684        1.1049499063
 H          3.2273480755       -0.1849481140        1.5205959013
 H          3.1789596272       -1.2916220488        0.4377558264
 O          5.9446678915       -0.0386474257       -0.1375694057
 H          5.0952891439       -0.2675222499        0.2878200858
 H          6.4674644986        0.4987743177        0.4892966728
 O         -2.2847835648       -2.7642833282       -7.8186647494
 H         -2.2822894712       -3.3960631678       -7.0622078865
 H         -1.3834708421       -2.7608055814       -8.1510727802
 O         -2.4735039827        3.4446910480        4.8432404286
 H         -2.6596052029        2.5716801061        5.2391651482
 H         -3.1455328925        4.0628234807        5.2085796367
 O         -6.2924644339        2.5683637070       -6.1378723379
 H         -5.4672196419        3.0914834264       -6.0741526130
 H         -7.0258436400        3.1865762139       -6.0845566437
 O         -3.9380169827        3.6821841941       -5.3937450776
 H         -3.8626826469        2.7935503277       -4.9656236424
 H         -3.1717588967        3.7150793949       -5.9842297693
 O         -0.3441006936        0.8755364372       -7.6095788936
 H         -0.2864437530        0.9599681611       -8.5600940249
 H          0.5011733538        0.4851576397       -7.3045819727
 O          0.6494032056        5.5569933307       -4.1094686163
 H          1.5913211373        5.7638288142       -3.9917554438
 H          0.2159976571        5.9898261967       -3.3557489268
 O         -7.3832353587        5.6292263136        0.2804535750
 H         -6.9764434680        6.2626201436        0.9213323179
 H         -6.7549750131        4.8790269712        0.2786014613
 O         -1.5057693840       -3.0141984514        1.9127717012
 H         -0.6606550248       -3.2703853916        1.5138737992
 H         -2.1688654467       -3.6158919725        1.5106787579
 O         -0.5045564587        5.0063608587        5.8200891396
 H         -1.0427280768        4.3400797678        5.3463469755
 H         -1.0781738134        5.8037796538        5.7929585969
 O         -1.7903199410        5.4973163721        2.7492509245
 H         -1.3691137270        4.6250076976        2.8843576514
 H         -1.0917336805        6.0386185072        2.3350465162
 O          6.8151641730        5.3463083283       -3.8466759143
 H          6.1812823136        5.0974703744       -4.5492636737
 H          7.5932499136        4.7594793347       -3.9248290180
 O          7.1731592707       -4.6017746711       -4.0956972063
 H          7.7850402977       -3.8727368106       -3.9402510748
 H          7.3459390481       -5.2347642052       -3.3833418102
 O          4.7456045077        4.5261070513       -5.3697235904
 H          4.1594947219        5.1371416412       -4.8883159233
 H          4.5910938269        3.6426330949       -4.9629679009
 O         -2.2827112154       -6.2918119908        2.8163189998
 H         -2.4877251003       -5.9860941855        3.7311947553
 H         -2.6936111749       -5.6627073315        2.1948769614
 O         -5.8303745927        5.5007610113       -4.5318694901
 H         -5.0801674522        4.9203142852       -4.7383722508
 H         -5.7134172618        5.8219595523       -3.6254859438
 O         -2.4759243299       -0.4136024423       -6.4632678085
 H         -2.4540703141       -1.2289750670       -7.0017111779
 H         -1.6907894157        0.0796182317       -6.7405633985
 O         -1.9712474393        2.9988478272       -1.5693620661
 H         -2.9010496623        3.2097942635       -1.7856361178
 H         -1.6417797054        3.7982608027       -1.0789035467
 O         -9.4633644946        1.6577858032       -0.2400012686
 H         -8.6021527744        2.0245455682       -0.5213203082
 H        -10.1064840974        2.0870733119       -0.8178285811
 O         -6.8956850446        1.9964058740        1.7299837880
 H         -6.5200574936        1.6309881300        2.5516961037
 H         -6.7726237616        1.2888609655        1.0518881486
 O         -5.3360906693        1.1413122623        3.7591264347
 H         -4.6394020088        1.6472353437        3.2907502578
 H         -5.5133649235        1.6455388391        4.5755816047
 O         -2.3515850750        6.7680054655        5.1226040519
 H         -2.2355348345        6.4112396534        4.2205619413
 H         -3.1796406056        6.3944904799        5.4451003120
 O          3.2289200699        2.5370354843        7.1645271932
 H          3.7683415607        3.3243817914        7.2647596985
 H          2.3067983729        2.7711528448        7.3595875595
 O          7.7096037814       -0.6686082160        3.1533891302
 H          8.4880749756       -1.1642427688        2.8590162663
 H          7.6672410691        0.1603494039        2.6435993575
 O         -6.3099249273        0.1657997802       -0.0562218298
 H         -6.9174313771        0.1301691183       -0.8098304466
 H         -5.4654714248        0.5384678580       -0.3758446548
 O         -8.0706350892       -3.4712481451        4.9086949280
 H         -8.9584150408       -3.6670589179        5.2054351591
 H         -8.0944944767       -3.4839349832        3.9233254569
 O          6.3691524431        7.0382138381       -1.7174831395
 H          6.5461833420        6.5799040793       -2.5560091934
 H          7.1227639959        6.8237157887       -1.1514950053
 O         -4.2765387716       -2.4070329987        6.7644739635
 H         -4.6061746586       -3.3031253388        6.6202706416
 H         -4.3781050885       -1.9835600953        5.8883533090
 O          0.8026625280       -3.3410176158       -3.4358298747
 H          0.1206460648       -2.8655312732       -2.9037682696
 H          1.4628653018       -3.6862605971       -2.7842163689
 O         -5.0876130654       -3.2027594986       -3.2915371656
 H         -4.5153504535       -2.4862151219       -3.6112822114
 H         -6.0096633676       -2.8837496653       -3.3247938352
 O          3.9575855991        1.4995239581       -1.0683061852
 H          3.7615444090        2.3993638997       -1.3707658891
 H          3.5407364719        0.9021726664       -1.7056553384
 O          4.5042135993       -1.6255283791        4.0394413882
 H          4.9036818347       -0.8155542495        3.6601206884
 H          3.6840165534       -1.2545979187        4.4256859295
 O         -0.7534639083       -0.5531050614        4.6095481118
 H         -0.2610230339        0.2745551354        4.7681797175
 H         -1.4300625139       -0.3385963995        3.9444758324
 O          0.1455551395       -5.1179593110        2.9037109741
 H         -0.7167565669       -5.5706746250        2.8587899842
 H          0.6832406414       -5.6296758379        3.5443234826
 O         -3.1139226207       -4.6954334403        0.7810668354
 H         -2.5320243422       -4.9304649210        0.0337184407
 H         -3.8971773806       -4.2851392322        0.3739796136
 O         -5.2584469376       -3.5658100108       -0.3526404173
 H         -5.4449262282       -4.3300246375       -0.9209289571
 H         -6.0892475739       -3.0497059388       -0.3714309440
 O          8.7873311147       -4.3098258077        1.1772942644
 H          7.9514399212       -4.0066599701        0.7482275841
 H          9.4432646282       -4.2079785523        0.4705190680
 O          0.9170089358       -2.5451157695       -7.8393053757
 H          0.4049491831       -2.3874098471       -6.9947953737
 H          1.3282689268       -1.6918508236       -8.0148474168
 O          3.4372958748        3.5221410408       -7.5863010307
 H          2.5376750195        3.8220929101       -7.4002555971
 H          3.9950448341        3.9701953424       -6.9248027028
 O          2.4931659437       -1.8163023745       -4.8725674875
 H          1.8574264554       -2.3311228116       -4.3330864236
 H          2.9693709707       -2.4670984307       -5.4141401779
 O          4.7468644831       -6.7228060744       -2.1687984860
 H          5.7103705609       -6.7504733490       -2.2733977582
 H          4.6358528078       -6.5541895172       -1.2079359704
 O          3.3096601208        6.0322853315       -3.5599105029
 H          3.2404108655        5.2812239979       -2.9155887937
 H          3.8409820664        6.7073950366       -3.1366550057
 O          9.7633084952       -2.5679077845        2.9110788367
 H          9.8647426954       -3.1272120965        3.6821251171
 H          9.3226609831       -3.1478317654        2.2342082402
 O          4.3576417243        1.0149176361       -7.2541437631
 H          4.0193631744        1.8822998477       -7.5590936264
 H          5.0218542879        1.2656661950       -6.5819170798
 O         -5.1654452302       -3.7850378239        2.6163834588
 H         -4.9185929177       -4.6675926380        2.2852329298
 H         -6.0824492644       -3.6636991759        2.3355421409
 O         10.6813288488       -0.3553923200       -3.2414286668
 H         11.3215878074       -0.2280423065       -2.4860304168
 H         11.2331961956       -0.5317617191       -4.0042826641
 O          8.4231500183       -1.4102850400        0.4163743264
 H          8.4035647423       -0.5978974425       -0.1173336576
 H          7.5109679857       -1.6462024853        0.6466121821
 O         -2.8224173641       -6.7296312713       -2.9825923561
 H         -1.9371229794       -6.5880955152       -3.3493931106
 H         -3.4733795917       -6.4791908521       -3.6662807457
 O         -4.5528317659       -1.4024335571        4.2837333059
 H         -4.9806881662       -2.0064244954        3.6700032331
 H         -4.8585146102       -0.4971923521        4.0612860869
 O          2.3189019046       -4.5383047718       -1.6947624152
 H          1.9313639668       -4.4091901851       -0.8151165141
 H          2.2347162677       -5.4757353915       -1.9221920586
 O          6.1360849036       -2.6696057217        5.8226353972
 H          5.6113228103       -2.7521908692        6.6216919386
 H          5.5371715861       -2.1844442255        5.1942983949
 O         -5.8595546492        6.9143609939        1.9844650634
 H         -6.0103397560        6.3227332463        2.7344607728
 H         -5.0161876647        6.5879134699        1.6089385462
 O          0.2068782390       -4.8859526962       -6.0786583537
 H          1.0480606827       -5.1864982594       -5.6890889933
 H          0.4152980879       -4.5111886148       -6.9361541824
 O         -5.6862988940       -0.4911310918       -3.1766083809
 H         -6.5890095086       -0.4918653073       -2.8047158150
 H         -5.8003370149       -0.4810595495       -4.1466493463
 O          3.0613738248        3.8195330668       -2.1996731250
 H          2.1770160736        3.3979233363       -2.1698385499
 H          3.5245643334        3.3416115434       -2.9214976263
 O         -8.1447506562        4.1959187403       -4.4492977058
 H         -8.6059667069        4.6490087590       -3.7325527162
 H         -7.2856071462        4.6725683079       -4.5207315556
 O          8.7161371271        3.4795271858       -3.6273311709
 H          8.5296230012        2.5701476822       -3.8986240358
 H          8.9102812165        3.4511211900       -2.6767881097
 O         -8.7397826533       -0.7324160234        0.7676955374
 H         -8.3955586528       -1.3690833409        0.1115354962
 H         -8.9710111776        0.0840250951        0.2953348338
 O         -8.8892357259        3.8458723657        1.8589298055
 H         -8.5303454683        4.5853030172        1.3444256093
 H         -8.2927650316        3.0908094386        1.6889762177
 O         -1.4846299935        3.1469808894       -6.4603870416
 H         -1.2153678068        2.3161527690       -6.8759333931
 H         -1.2630167385        3.0501064118       -5.5046074616
 O         -6.0264968196        2.1431310378       -3.4520358832
 H         -5.6507242179        1.2477438923       -3.3290048114
 H         -6.1991476906        2.2405601081       -4.4053259605
 O          6.0783297873       -2.2516929309        1.7787037601
 H          5.2183674176       -1.8489281553        1.5742915016
 H          6.5343348749       -1.6434443866        2.3950117725
 O         -3.1135558374        0.9809924420        5.6415156295
 H         -3.9509117932        0.7009938301        6.0549750114
 H         -3.0668226410        0.5676549500        4.7656757878
 O          0.2013721098        6.6146801308       -1.6488931682
 H          0.9685796020        6.2892131845       -1.1281211049
 H         -0.0572990671        7.4594496302       -1.2662116410
 O          6.3848350568        1.2193957013       -2.4464860847
 H          6.0608206927        0.6702490189       -3.1830275056
 H          5.8439241229        0.9663060908       -1.6678552531
 O         -4.1452279385       -7.1682818033       -0.6031888484
 H         -3.5196532671       -7.1121039186       -1.3424138186
 H         -4.9618583138       -6.8039281609       -0.9788409848
 O         -1.4396439384       -7.7785895798        0.6959252774
 H         -2.2836061906       -7.9930392874        0.2875144579
 H         -1.6582976403       -7.3852053308        1.5581302764
 O         -9.4675575264        0.6988497384        4.2998736800
 H         -8.7641750774        0.1858781588        4.7356638074
 H         -9.9439159623        0.0458589171        3.7518175312
 O         -2.7347692634       -5.2570302288        5.2076657033
 H         -2.5242212126       -4.3119031661        4.9713988798
 H         -3.6629570825       -5.2502719249        5.4644172594
 O         -1.8322248220        2.0201671123        0.9916993774
 H         -1.6818627166        2.3519171350        0.0894256379
 H         -1.1707031918        2.4769228786        1.5648335882
 O         -1.0108701808        8.3839696916        0.1140715723
 H         -1.2895056252        9.1978227487        0.5315723682
 H         -0.5526264270        7.8612017532        0.8066272260
 O          8.0176960778       -0.7306985588        5.8278545650
 H          7.8272059113       -0.5303635789        4.8880658714
 H          7.4487427067       -1.5022878862        6.0053659770
 O          1.3732579197        6.0232473053        4.1823791461
 H          0.7514537324        5.6742030611        4.8537257529
 H          2.2383291072        6.1803261907        4.6106536067
 O          3.1705978303        2.1841813807        4.5097134223
 H          3.8788711182        1.5799028209        4.2097707586
 H          3.3259516811        2.3301479085        5.4626854897
 O          4.4204469259        2.4099801305        1.3638949535
 H          4.2805855540        1.9835310189        0.4991924146
 H          5.1157706777        3.0715947829        1.2293581101
 O          6.4754736771        1.3631702097        6.6256841997
 H          5.6171057724        0.8926105137        6.5674352675
 H          7.1359264397        0.6478973952        6.6421731950
 O          9.9784250511        1.8009132221        3.6066286198
 H         10.3486083863        1.0839522931        4.1599015547
 H          9.0204115667        1.8243597788        3.8410514186
 O          5.4925233943        3.9785338498        5.9797060795
 H          6.0855769531        4.2124647989        5.2541555279
 H          5.8250470526        3.1477517062        6.3455747311
 O         -1.1576883732        0.9400601360        7.5524010749
 H         -1.7838717812        1.0938104069        6.8227337191
 H         -1.3309869885        0.0158801694        7.7896106939
 O          0.5585220792        3.0821204076        7.3415846491
 H         -0.1307773028        2.5174082899        7.7153151269
 H          0.1450199983        3.8971815382        7.0005967699
 O        -10.2270662290       -3.2370715865        0.7374109055
 H        -10.1962091560       -2.6746164853       -0.0562063038
 H        -10.6767431209       -2.7078138963        1.4123517313
 O          8.7768435379       -2.3877021805       -3.3813168701
 H          7.9888397665       -2.0468399966       -2.9004931022
 H          9.4315121011       -1.6718314416       -3.3711708372
 O         -3.0436659400        6.9556368552       -1.1673551156
 H         -2.3474611909        7.5089799762       -0.7810557661
 H         -2.6446657325        6.4795451655       -1.9214650230
 O         -5.6142532996        6.1289481173       -1.8140654184
 H         -6.3001204236        6.1574946212       -1.1263843301
 H         -4.8527325461        6.6381373010       -1.4989854869
 O          7.5423828759        1.4040253539        1.3885414356
 H          7.2565514176        2.3121997070        1.1659565245
 H          8.4575034044        1.2975822883        1.0792632410
 O         -4.7895724424       -2.3797710463       -6.4445041790
 H         -4.2376134715       -2.5509270640       -7.2129862815
 H         -4.1837545266       -2.3239960489       -5.6923725885
 O          3.2788112162       -3.4849985516       -6.8643123166
 H          2.4404355672       -3.2553913230       -7.3186887046
 H          3.1884601869       -4.3851031465       -6.5342494738
 O         -6.8402639350       -4.1570009771       -5.6724852007
 H         -6.2231752381       -4.8744296821       -5.4697310561
 H         -6.2905348283       -3.4641220943       -6.0703849543
 O          4.9991613100       -0.2807491479       -4.1524571613
 H          4.4938226483       -0.8738190493       -3.5779899523
 H          5.1400335516       -0.7519843592       -4.9894676816
 O          8.3687707183        5.7881435783       -0.1409505042
 H          8.8971372846        5.8731478864        0.6565039725
 H          8.7257243465        5.0225571893       -0.6178813178
 O          9.2548415131        4.0615118517        1.9467307964
 H          9.6291456462        3.4372759044        2.5802363338
 H          9.2171266333        3.6003598728        1.0958053061
 O          5.7777450921        3.7445272449       -1.9645554909
 H          6.1732937264        4.3692102789       -2.6019991539
 H          5.9710685714        2.8449673443       -2.2948268408
 O          1.8989785348        5.5229719222        0.0717809990
 H          2.8543183506        5.6182068191       -0.1020656582
 H          1.7387071992        4.5699940855        0.2190233241
 O          5.2730041514       -1.5576019984       -6.5488439016
 H          4.6863725098       -2.2994031926       -6.7596089108
 H          5.0118540342       -0.8083272868       -7.1002742829
 O          1.6398393114       -6.3579814893        4.7099504220
 H          0.9661006841       -6.2592733003        5.4216814802
 H          2.3708344849       -5.7668252202        4.9602909079
 O          2.1461862136       -0.4641426345        4.3279301666
 H          1.5945899274       -1.2258672605        4.1191556476
 H          1.9398323654       -0.2324625717        5.2565031127
 O          1.3333931554       -0.1908250358        6.8732779296
 H          1.1143631522       -1.1144190607        7.0437562275
 H          0.5425361970        0.3244932870        7.0960060706
 O          7.3569683665       -6.0539801396       -1.7398902658
 H          7.8991233774       -6.5792049304       -1.1528991295
 H          7.0880591762       -5.2521266982       -1.2220275357
 O         -7.3838092157        2.8597660088       -1.3682420753
 H         -6.9871486640        2.5388809916       -2.2084417435
 H         -6.6408612101        3.1529663516       -0.8191047314
 O         -4.4884842628        4.9825408810        5.6603147545
 H         -4.9860905940        5.0245160482        4.8143688269
 H         -4.9492335736        4.2948932236        6.1603457701
 O         -9.0899397864        4.7935792077       -1.8430494406
 H         -8.8923251079        5.4373667028       -1.1551599383
 H         -8.4162735955        4.0800418228       -1.6953769520
 O         -9.1865277836        1.8358003747       -3.6902375984
 H         -8.6972263399        2.6089204625       -4.0397982848
 H         -9.9795893951        2.1954467260       -3.2780785728
 O         -5.8324734970        4.5534637350        3.3919485077
 H         -6.5254863553        3.9501554870        3.6945346707
 H         -5.1255846389        4.0133455354        2.9935751368
 O        -11.1328566068        2.7714979476        3.1298931896
 H        -10.6674730841        2.1830320692        3.7382127402
 H        -10.4443840985        3.2555670930        2.6457807277
 O         -7.3354511662       -0.8194943467        5.0541516797
 H         -7.0191614858       -0.7512961211        4.1300223669
 H         -7.5720263340       -1.7543960679        5.1726958386
 O         -7.9357360149       -3.3680720076        2.2426551725
 H         -7.5648606981       -2.4516682001        2.2487683339
 H         -8.7336905329       -3.3312517228        1.6741845715
 O          6.6156137577        3.7569211329        0.5275778368
 H          6.3319800401        3.6767948732       -0.4128032146
 H          7.1075706115        4.5879150778        0.5585500827
 O          6.7449512710       -3.8476118374       -0.4226965785
 H          6.8389395174       -3.0932439867       -1.0491451938
 H          5.8559550286       -3.7214662553       -0.0360197987
 O         -7.6782457542       -6.0958305682        1.7348705614
 H         -7.7615490428       -5.2180398050        2.1306298957
 H         -6.7351217906       -6.3270931611        1.7796406140
 O         -6.1567555794       -5.7079768739       -1.8463580107
 H         -6.1139538215       -5.7601029387       -2.8036324695
 H         -7.0876675455       -5.6256505856       -1.5912879292
 O         11.8746076432        2.5113288238       -0.1746864970
 H         11.2613734269        1.9566817063        0.3862175435
 H         12.4868913146        2.9398256666        0.4220380528
 O         -7.6974111002       -2.6770304054       -0.8294829649
 H         -7.7311090645       -2.5723872648       -1.7947437562
 H         -8.0758336461       -3.5630231907       -0.6648501613
 O         -8.5815863631       -5.2240416979       -0.5883614828
 H         -8.2471211731       -5.6445245466        0.2425080327
 H         -9.5059619863       -5.0301867553       -0.4144020031
 O        -10.6248935783       -1.1259989167        2.5819601103
 H         -9.8502432490       -1.0189725522        1.9885939578
 H        -11.2709047889       -0.4967607148        2.2128613120
 O         -0.2222987614       -5.6650815839        6.4668523334
 H          0.0627335373       -4.7582690780        6.6828416467
 H         -1.1188182747       -5.5975119762        6.1069066842
 O          5.1632357048        0.7955004105        3.2853290661
 H          4.9553231157        1.3268916908        2.4880443677
 H          6.0221193201        1.1280061088        3.6060722999
 O          8.6769010304        0.6983209699       -1.3351552661
 H          9.3153237252        0.3619610433       -1.9679509880
 H          7.8291967167        0.8527934140       -1.8303567269
 O          8.4502834693        0.8074858879       -4.4665242224
 H          8.2339971893        0.0539113919       -5.0636332625
 H          9.3143423723        0.5860539239       -4.1009269459
 O          9.3298249555        3.2496642926       -0.8905482487
 H          9.0291784522        2.3118670793       -0.9462049272
 H         10.2957499773        3.1952143423       -0.8421441731
 O          4.1945633215       -0.0613646017        6.4569184710
 H          3.9137801809       -0.9621343640        6.6817696387
 H          3.5520368252        0.5345250526        6.8575200284
 O         -6.2828464133       -0.2082997896       -5.7761608841
 H         -6.1181896838        0.6907355759       -6.0920744439
 H         -5.7231739413       -0.8335429691       -6.2625300487
 O         10.2101192594        1.0123858106        1.1384236868
 H         10.2032461382        1.2429075716        2.1042443487
 H         10.5214094830        0.0912712133        1.0453686504
 O          6.8872824895        4.4282292221        3.4898128165
 H          6.0914832205        4.6736060173        2.9713669982
 H          7.6535686890        4.5189640351        2.9046567529
 O         10.5663497061       -0.5008598654        4.8619479014
 H         10.4569411870       -1.1357573902        4.1469022886
 H          9.7666810176       -0.5856477032        5.4139875058
 O        -10.2683374632       -1.6091913572       -1.6140127985
 H        -10.9774345159       -0.9302620957       -1.5160738066
 H        -10.4284638293       -2.0587147394       -2.4448260277
 O          0.6419373117       -2.7538349926        3.9974387816
 H         -0.0945506282       -2.1171638328        4.1014247733
 H          0.2709420082       -3.5826281620        3.6250637595
 O         -2.8653187627       -1.9683245790       -4.2464716036
 H         -2.5385747193       -1.3083137217       -4.8827528263
 H         -2.2585684839       -1.9387773750       -3.4753409572
 O         -4.5891653396       -5.4624293837       -4.6223339302
 H         -3.8424866775       -5.1783630522       -5.1816314068
 H         -4.7892184195       -4.6569410038       -4.0940806078
 O          2.7511187857       -6.0270649972        2.1741818246
 H          2.4948987789       -6.4350580918        3.0089960880
 H          2.8830716654       -5.0750952040        2.3689321978
 O          4.5163874761       -4.5351455917       -3.7236894514
 H          5.4437153815       -4.4767585971       -4.0317450019
 H          4.5205642448       -5.2562594846       -3.0581358301
 O        -11.6650995728        0.9817952206        1.2519723958
 H        -10.7912865450        1.1786233311        0.8742516212
 H        -11.7553923999        1.6589399561        1.9567342269
 O         -2.3475311054        5.4590946648       -3.3338204634
 H         -3.0627083671        4.8150121601       -3.1560985124
 H         -2.4762226381        5.7696388562       -4.2287158960
 O         -5.8906491251        2.6544868653        5.9718244913
 H         -5.9273678863        1.9094244850        6.5840624385
 H         -6.7882147940        2.8408223703        5.6567872172
 O          3.3948961257       -2.7233328003        6.8109612010
 H          2.4590226815       -2.8124260438        7.0324955344
 H          3.5433872956       -3.3899067648        6.1184222006
 O          3.8846676693       -4.8499139704        5.1218353341
 H          4.4864932294       -4.5996391461        4.3808887570
 H          4.4050373017       -5.4012844437        5.7062711245
 O          6.6318548659       -1.7494174864       -1.9910283747
 H          6.4999019803       -1.0559698208       -1.3075059827
 H          5.7098710907       -1.9654995595       -2.2670185829
 O         -8.8345222904       -0.6577967077       -4.9073503673
 H         -8.0099039118       -0.5044063992       -5.3975402366
 H         -9.0895234283        0.2108611341       -4.5648479983
 O         11.3255914643       -1.4594072300        0.8475629466
 H         10.9618332936       -1.8385658411        1.6610933052
 H         10.9973535056       -2.0458235545        0.1429723313
 O         -1.6308100959       -1.6593368824        6.9738959098
 H         -1.4736774678       -1.3101191533        6.0708382940
 H         -2.5318745769       -2.0231349008        6.9712647702
 O          7.3874783588        1.9398428982        4.1981700164
 H          7.1219090942        1.8244826778        5.1357725829
 H          7.1678679291        2.8614923066        3.9396144296
 O         -5.4326581557       -4.4587612451        5.2672832574
 H         -5.2471817614       -4.1962648009        4.3449074965
 H         -6.3719427607       -4.2752169810        5.3882505603
 O         -8.0440224591        3.0629204576        4.3449376002
 H         -8.4960158752        2.2026490457        4.3359291078
 H         -8.4698277464        3.5692160049        3.6335331224
 O         -5.4696942410        0.1025548474        6.7994891797
 H         -6.1465761453       -0.2262038252        6.1712358975
 H         -5.1153959241       -0.6855483392        7.2296921931
 O          3.9406984122        6.0449849700        4.8590443145
 H          4.2906240579        5.9390054763        3.9611623525
 H          4.3688636282        5.3581897833        5.3860842304
 O          9.9514752948       -3.0645848800       -0.9314710157
 H          9.6994986587       -3.0783678555       -1.8648193519
 H          9.2956218005       -2.4628549257       -0.4978415896
 O          6.2600199186        2.0454122355       -5.6243188355
 H          6.9844081207        1.6160509924       -5.1526228772
 H          6.5985636298        2.8604788004       -5.9939897127
 O         12.3821773399        0.0572975031       -1.3098859188
 H         12.3129368067        0.9868312736       -1.0289947320
 H         12.2014284963       -0.4764259401       -0.5244128299
 O         -5.4620638829        3.6812291343        0.3073763788
 H         -4.7743675695        4.3099056650        0.6439028268
 H         -5.8268169814        3.1573208188        1.0552893399
 O         -0.9587058326       -0.6872871691        0.0844188640
 H         -1.2913812592        0.1714195591        0.3603705293
 H         -0.7026245342       -1.1571914891        0.8971404416
 O          1.6948454968       -1.6206573162       -0.6708541861
 H          0.8892453413       -1.0860743680       -0.6423741868
 H          1.4223346642       -2.4753331507       -0.3066716397
 O          0.8755466282       -1.1871917466        1.8891563996
 H          1.0774296558       -0.2652622636        1.7027421426
 H          1.7029933063       -1.6660764394        1.8209038993
