  117
       -193.22769534
 H          1.6014202713       -1.5483341286        1.1381007168
 C          0.6518657336       -1.6496719911        0.6065348952
 H          0.4373995027       -2.7122456428        0.4921795073
 C          0.7578896552       -1.0137741317       -0.7689151973
 H         -0.2303007686       -0.9898981468       -1.2204346722
 H          1.4022612238       -1.6336723599       -1.3825047916
 O         -0.4017568458       -1.1039436403        1.3749804653
 H         -0.3995876970       -0.1134860346        1.2551806673
 N          1.2926386279        0.3686879118       -0.7202494631
 H          0.6069485627        1.0253634334       -1.1426531722
 H          2.1663740935        0.4754672233       -1.2764162161
 H          1.5011164664        0.6881728508        0.2560647105
 O         -3.1650398540        3.1449807803        2.5796801985
 H         -2.6624402140        2.5451068632        3.1463064088
 H         -2.5133680538        3.5771447242        1.9972956234
 O         -5.5722895993       -1.4394454123       -0.1163220197
 H         -5.7228379377       -0.9577514310        0.7144378468
 H         -4.7589216966       -1.9542692383        0.0215223768
 O          3.6791303618       -1.9590227439       -1.8341218916
 H          3.0819408754       -1.7982871718       -2.6005676156
 H          4.5686491145       -1.7723664482       -2.1521573304
 O         -1.5570637670       -4.6508025459        0.6513821826
 H         -0.9654280068       -4.6415276866       -0.1358441900
 H         -2.0040746749       -5.4980915746        0.6558652167
 O          2.4506080064       -4.1835001539       -0.6927503589
 H          2.6931578210       -4.0862535396        0.2500892340
 H          2.9830780057       -3.5278744339       -1.1675700923
 O         -1.4623911244        1.2079532333        3.6960312431
 H         -2.0092256708        0.4674198207        3.3636237665
 H         -0.7078934362        0.8161955548        4.1512933483
 O         -1.8594564616        3.5504017587       -1.5747044337
 H         -1.6623097538        3.8214329267       -0.6558491357
 H         -2.8183280142        3.4354737980       -1.6096570768
 O          2.4103441274        0.9487086402        1.7161369545
 H          1.9429589206        0.6508530144        2.5224209653
 H          3.0329118948        0.2269054279        1.4880309099
 O          3.8063019846        3.6313159819       -1.6230212395
 H          4.3721470789        4.3788551014       -1.8162253548
 H          4.0424321243        3.3324514405       -0.7012011124
 O          1.8955378709       -1.5014378620       -3.7633209303
 H          1.0274795385       -1.9416093959       -3.7025631170
 H          1.7048625028       -0.5950837730       -4.0420539905
 O          0.9490766956       -0.3012723061        3.6549118393
 H          0.3606413756       -0.6776699100        2.9758544780
 H          1.3733063797       -1.0759883137        4.0513481225
 O         -5.0553270314        0.0713521820       -2.1745888447
 H         -5.6870323524       -0.1195200083       -2.8680327459
 H         -5.3318799056       -0.4778648772       -1.3865822228
 O          3.3482476069        1.0847865543       -2.4201866405
 H          3.5587385097        2.0051195327       -2.1758893212
 H          2.7275125663        1.1419019166       -3.1664766911
 O         -2.5177463792       -0.8797167348       -1.8722874254
 H         -3.4059431735       -0.6323416178       -2.1907026803
 H         -2.6705470574       -1.5297978809       -1.1437470730
 O         -2.6698852872        1.0721472351        0.0530631186
 H         -2.5507395486        0.3811914023       -0.6220329087
 H         -3.3206068750        1.7051988843       -0.3171040594
 O          1.2342891127        3.7569532416        1.2442160647
 H          1.4111043127        2.9505966328        1.7378634923
 H          1.2925086624        3.4955414127        0.3041914159
 O         -1.3067991525        4.3537703117        0.9820693503
 H         -1.3499139012        5.3017818953        1.1114390263
 H         -0.3614775592        4.0937167031        1.1704833516
 O          1.2441497241        1.2004288747       -4.1472998318
 H          0.4882398814        1.2741000565       -3.5219681187
 H          0.9539016051        1.5615906829       -4.9846955180
 O         -0.6032834797       -2.5004790843       -3.2827016912
 H         -1.3384484216       -1.9818945653       -2.9310348068
 H         -0.4674013481       -3.2427794502       -2.6715327547
 O         -0.3696725496        1.5109878338        1.2485399175
 H         -0.6599351439        1.6310107501        2.1724162671
 H         -1.1751638092        1.6221301603        0.7121542807
 O         -4.5055534254        2.5692175314       -1.1428246783
 H         -4.8500374573        1.7935169104       -1.6200765751
 H         -5.0512807078        2.6791386719       -0.3456802104
 O          3.2020007393       -3.5074965741        1.8087154094
 H          2.6434536329       -3.3622892572        2.5902236370
 H          3.6377070411       -2.6647460245        1.6198774618
 O          6.1739353878        0.4600421907        0.1073876815
 H          6.1226722786        0.2488260635       -0.8492667467
 H          7.0922667450        0.3836362087        0.3681954773
 O         -0.9523065020       -3.2716443607        3.0251123986
 H         -1.0755322177       -2.4199730325        2.5825039265
 H         -1.1031241094       -3.9352309519        2.3376396669
 O          3.9586348314       -1.0130361614        0.7235786922
 H          3.7827888326       -1.3475558936       -0.1773733627
 H          4.8301115158       -0.5881602236        0.6669667469
 O          4.4445639073        2.5991798410        0.6849286958
 H          5.0966453849        1.8938897331        0.5517750350
 H          3.7055498789        2.2056018469        1.1719641694
 O         -3.0300692016       -0.4556357506        2.2270987952
 H         -2.9151824855        0.1782660292        1.4856176498
 H         -3.9734599445       -0.4114261482        2.4438702602
 O          1.1557111158        3.1139618317       -1.3906381289
 H          2.0199643546        3.4790143867       -1.6403026749
 H          0.4691143798        3.6577296002       -1.7827688122
 O          5.7360132591       -0.1330733573       -2.4905285022
 H          6.2364065736        0.1502785054       -3.2561934673
 H          4.8518036699        0.2956847522       -2.5433282876
 O          0.0187452875       -4.5621541280       -1.5107135470
 H          0.9516432554       -4.3986645700       -1.1933591448
 H          0.0707113439       -5.3597794705       -2.0404707436
 O         -0.7386084501        1.2719189071       -2.3504953232
 H         -1.4176588076        0.5875745447       -2.3941616133
 H         -1.1760992541        2.1168926296       -2.0909786379
 O         -5.4508546169        2.6012215437        1.4402858681
 H         -4.5662900629        2.7862689949        1.8606523418
 H         -6.0457149105        3.2674982288        1.7871254065
 O          1.5279890858       -2.9792628262        3.9636555841
 H          1.6811736114       -3.5602986232        4.7092597657
 H          0.6091806739       -3.1652947243        3.6504523827
 O         -3.0111793534       -2.3633930337        0.2714623519
 H         -2.8491091729       -1.7943932904        1.0523038959
 H         -2.5291881507       -3.1942909599        0.4282653242
 O         -5.7373886228        0.0408178915        2.2111802774
 H         -6.4739633653       -0.0320928285        2.8184766306
 H         -5.6897579121        0.9779117482        1.9170190353
