  300
       -509.24417413
 O         -4.1387185306        3.1727597236        3.5119676650
 H         -4.5097782683        2.4744800624        4.0869452982
 H         -4.8683941469        3.7560824522        3.2932931801
 O          0.2860523554        1.8660365476        4.5065259248
 H          0.2445700781        2.7959211673        4.2088231079
 H          1.1692796723        1.5420567780        4.2323371404
 O         -3.0812548456       -1.2203062601       -0.7668357102
 H         -2.5982791763       -1.8881847823       -1.2957159027
 H         -3.1087257132       -0.3873526193       -1.2845413764
 O          1.3693260333        0.0864901742       -3.6746125775
 H          1.9579137925        0.6949701612       -4.1457528784
 H          1.8940135551       -0.3443777067       -2.9922923204
 O          5.0371374102        2.4437771784        3.9754271912
 H          4.6549545970        3.1432568553        4.5172815554
 H          5.0907694431        2.7961858057        3.0666563919
 O          0.3264139521       -1.3515999149       -0.9994649661
 H         -0.2462658146       -1.9607989409       -0.4927791069
 H          0.6357245441       -1.8129333586       -1.7993852080
 O          0.7519319056       -0.5574387912        6.4646324414
 H          0.1446820879        0.1221806041        6.8000575963
 H          0.5800408276       -0.6358923113        5.4911436718
 O          0.3165374053        4.4975875776        4.1850628599
 H          0.5085396289        5.0419514284        3.3941569255
 H         -0.5927681766        4.7051031293        4.4587469909
 O         -1.1348262529       -2.9427614679        0.6070868936
 H         -1.6411648916       -3.6732688615        0.2011299675
 H         -1.6287495995       -2.6809641171        1.4017756818
 O          0.4638375663       -1.0298850344        3.8959217179
 H          1.3615682973       -1.3549033821        3.6828141973
 H          0.3028643008       -0.2947864207        3.2690147495
 O         -0.6325205075       -3.0067351373        6.1242624503
 H         -1.5341476772       -2.7292943837        5.9194349445
 H         -0.1886394459       -2.2252360310        6.4835088827
 O          1.3710964338       -3.9398711814        4.5164591567
 H          0.5868036286       -3.6670429024        5.0314164411
 H          1.2628538445       -3.5653439342        3.6165866952
 O         -1.4849344506        7.8280859498       -0.7561370434
 H         -1.3484180136        7.7972357948        0.2031509452
 H         -2.1988813645        7.1844076341       -0.9157844551
 O          0.6726365565        2.7114720186       -2.5862449787
 H          1.1395287581        3.4846409601       -2.9622156917
 H          0.3633469345        2.1933178571       -3.3553074796
 O         -6.0735924391       -0.7395054347       -3.1029605436
 H         -5.1747753025       -0.6174835412       -3.5109740600
 H         -6.6147642495       -1.1344487176       -3.7856918008
 O          2.4877848231       -3.1364755032       -0.5660041975
 H          3.1151705208       -3.1219460151        0.1744456188
 H          2.6279340752       -2.3163086141       -1.0549302881
 O         -2.5234792137        4.9173433008        2.1029973588
 H         -2.6409645435        4.6743669793        3.0373455277
 H         -3.3808601722        4.7482266370        1.6671739356
 O          3.7944389510       -5.6903514016       -1.0372980418
 H          3.3043845634       -5.4837342130       -0.1966845689
 H          4.4833780313       -6.3106161991       -0.8046833172
 O          1.9592942807       -0.7029085006        0.9332473104
 H          1.3317140055       -0.0718281872        1.3516104473
 H          1.5138368817       -0.9360278977        0.0910796549
 O         -0.9447583815       -2.6054610133       -5.9769865888
 H         -0.0254735662       -2.3679227892       -6.1482229575
 H         -0.8894530004       -3.2880604478       -5.2839318716
 O         -0.3628030963       -4.5705275834       -4.1783435084
 H          0.1923506130       -5.1555464706       -4.6977118333
 H         -0.9309657810       -5.1483922478       -3.6078872999
 O         -5.0225961799       -4.4258536873       -1.2318225472
 H         -5.3630072572       -3.5325516638       -1.0403402614
 H         -4.7599517968       -4.4190859318       -2.1708874119
 O         -0.4889316016        1.8884971699       -4.9046426906
 H          0.0642241621        1.3046430332       -5.4596961779
 H         -1.4170666267        1.7282366181       -5.1927693859
 O          2.4932357844       -5.4175795924        1.2522419629
 H          2.1132576603       -4.5272538467        1.4354554796
 H          1.6948046148       -5.9571276561        1.0688635570
 O         -1.4655569591       -2.7575726190        3.2514308600
 H         -0.7315790619       -2.1454202482        3.4717143805
 H         -2.1762059190       -2.5465236036        3.8764277146
 O         -3.7810796092       -0.5705291022       -4.3784268663
 H         -2.9110347335       -0.5747373860       -3.9339905537
 H         -3.8008786116       -1.3713948361       -4.9607635354
 O          1.3555937716       -2.6739596138       -3.1696249011
 H          2.2404894641       -3.0469176112       -3.0131039270
 H          0.7699446419       -3.4036061937       -3.4466124770
 O         -3.5564877972        1.0989254519       -2.0216961665
 H         -3.0261145267        1.6931242557       -1.4539012169
 H         -4.4878042319        1.2455126258       -1.7706189034
 O          4.3220127681        0.3736459881        1.0362883999
 H          3.4122337981       -0.0147555324        0.9488707994
 H          4.6844351156        0.0520360198        1.8842846467
 O          2.7272450482        1.3537079873        6.4893596909
 H          2.0584803375        0.6402259856        6.4568502190
 H          3.5780870893        0.9218600902        6.5574397048
 O         -1.2708259555       -0.5006031774       -3.3429952378
 H         -1.3542925679        0.1028270151       -2.5763229963
 H         -0.3769041674       -0.3308835969       -3.6812556385
 O          3.0388895192       -1.4100216075        3.3139796343
 H          3.6896384575       -1.7001931481        3.9731417722
 H          2.9859205826       -0.4271154853        3.3585008902
 O          1.7869345018       -6.0355411500       -2.8295632410
 H          2.5599351617       -5.9869848783       -2.2396539694
 H          2.0453051659       -5.6333704371       -3.6742006019
 O          2.8164191281        3.8100836357        5.1746558114
 H          2.7418403442        2.9644237228        5.6488245166
 H          1.9048071599        4.0971287629        5.0021887493
 O         -1.8343487855       -6.1538705654       -2.6543677540
 H         -2.0547386553       -5.7236909128       -1.8038663936
 H         -1.2678113875       -6.9125245866       -2.4022486045
 O         -0.9449085415        0.9908516829       -1.0845523068
 H         -0.3258731415        1.6699613265       -1.3649845141
 H         -0.4199461396        0.1961170619       -0.8882770996
 O         -2.3637397576       -0.3137308908        1.6427377725
 H         -2.5045383120       -0.8703672050        0.8562934487
 H         -2.9817608050        0.4398346366        1.5076623303
 O         -6.1877303437        0.1864135658        0.9809503966
 H         -6.0150995707       -0.6269971500        0.4593195496
 H         -5.3260921762        0.6573137208        1.0716966066
 O          2.7200136275        1.8043005960       -1.0770950106
 H          1.9469258544        2.0788758243       -1.6112997410
 H          3.4919790875        2.2782488858       -1.4405716519
 O         -3.6786417422       -4.3277615025       -3.6007646509
 H         -3.0021749347       -3.7599470339       -3.1619178443
 H         -3.2855434999       -5.2088135950       -3.5865480905
 O          2.2741828336       -4.7541669690       -5.2755602414
 H          1.9839818672       -3.8497951891       -5.4950432285
 H          3.1809005831       -4.8089914814       -5.5800629565
 O          3.3164809250       -0.6899183008       -1.7729821592
 H          3.1226719515        0.1799440921       -1.3603484225
 H          4.1154743742       -1.0529862602       -1.3401754288
 O         -1.5289896699        4.4048958017       -2.9539799354
 H         -0.9242757516        3.7098116828       -2.6474837201
 H         -2.2568092260        3.9374669241       -3.4207192517
 O          4.8140224289       -0.1376309211       -3.9566403660
 H          5.5947536806        0.2754932844       -3.5352280698
 H          4.2246750013       -0.3881721119       -3.2130551281
 O         -2.6765863951        3.0464298098       -0.4439847073
 H         -2.8712985950        3.9946300071       -0.5285405493
 H         -1.8228343336        2.9652429950        0.0318735069
 O         -6.7543858065        2.5452631282        2.4442407663
 H         -6.5953523564        2.1791408366        3.3207644737
 H         -6.8365513546        1.7765421289        1.8664873260
 O         -2.0766117275        0.5293598581        4.2222443676
 H         -1.1863362748        0.9286734288        4.2146936701
 H         -2.2307024629        0.2000110366        3.3200625225
 O         -5.5745593034       -1.8378625630       -0.6691917097
 H         -5.8821325236       -1.5071756852       -1.5324848455
 H         -4.5972285251       -1.6194677033       -0.6621282635
 O          1.1358853016        4.8191982803       -0.2396021306
 H          2.0997554544        4.7525137479       -0.3340485096
 H          0.8065417367        5.3826245760       -0.9754385047
 O          5.8344049995       -0.1798858202        3.1932990386
 H          5.7166044464       -0.9181805787        3.8086004956
 H          5.7386062447        0.6379935514        3.6968057442
 O          4.3642778177       -2.4531835641       -5.3078795679
 H          4.2994596699       -2.9831883797       -4.4958062977
 H          4.7007590862       -1.5929923923       -5.0025770378
 O         -0.7987818547       -5.2857895747        3.1041361566
 H         -1.0172841800       -4.3165388209        3.1266498621
 H         -0.0844503004       -5.3942356788        3.7392355805
 O         -5.3412678489        1.1520104674        4.7886478507
 H         -4.8539990453        1.0958953702        5.6137054975
 H         -5.1556794832        0.3344168270        4.2874326470
 O          4.3080869959       -2.8239591178        1.4482486916
 H          3.8037044954       -2.1659729035        1.9726517389
 H          4.3959444464       -3.5754407212        2.0534103288
 O         -3.0619923107       -1.7485657047        5.2195354024
 H         -3.9403376312       -1.7303734512        4.8260605179
 H         -2.6659075016       -0.8794074474        4.9949635263
 O          6.7929310854        0.1171694205        0.1417324856
 H          7.2357181537       -0.0740601106        0.9706376217
 H          5.8464124002        0.2420488780        0.3827164759
 O         -2.8631304876        2.3911045445        6.0103579325
 H         -2.7030553699        1.7610198311        5.2813582651
 H         -2.1118361292        2.2637662746        6.6077860969
 O         -0.3408368336        1.8867581350        7.0518832242
 H         -0.0748115847        1.9512595767        6.0971175574
 H          0.3489959312        2.3280550142        7.5478035599
 O         -6.2100299542        1.4530530898       -1.4553636811
 H         -6.4044281171        0.7598788135       -2.1055990281
 H         -6.3960973502        1.0740569369       -0.5762482112
 O         -2.2966774131        4.7552864384        4.9096807842
 H         -2.5697332148        3.8583167142        5.2356875816
 H         -2.7029419514        5.3854414865        5.5025764986
 O         -1.4075798530       -0.1900846366       -7.5069849711
 H         -1.4406248393       -1.0440208019       -7.0575561501
 H         -0.4983040996        0.1221465058       -7.4101738495
 O         -5.0541346405       -1.0789656187        3.2481440021
 H         -5.6549785593       -0.7059337565        2.5850514899
 H         -4.5011684641       -1.7081550637        2.7429084715
 O          3.3035755872        4.7914657520        2.6221981000
 H          3.2280858066        4.4769897423        3.5366917075
 H          2.5789113531        5.4229076822        2.5169798978
 O          3.9285918666       -4.6828113558        3.4837753014
 H          3.5638417141       -5.2406768098        2.7780579244
 H          3.1511155896       -4.4454480251        4.0098036227
 O          0.0167158759        0.7132721765        1.9391317315
 H         -0.0266616596        1.6598729573        1.7176205806
 H         -0.8460772264        0.3271497700        1.6614885885
 O          1.1920872278       -3.1541415212        1.9215698197
 H          1.5909919549       -2.2987137551        1.6712407661
 H          0.3338512098       -3.1809669005        1.4495131060
 O          0.1974194534        6.3684649072       -2.1928951589
 H         -0.3083516351        7.0560597452       -1.7002966954
 H         -0.4860053070        5.8031562438       -2.5931546566
 O         -2.6184434940       -5.0048955946       -0.2998996097
 H         -2.7787488555       -5.5028540928        0.5116232088
 H         -3.5165440866       -4.7555930196       -0.6262306450
 O          4.1825446733        4.1636306197       -4.5114936958
 H          4.5902582630        4.8182078519       -5.0767661884
 H          3.2986626616        4.5140602076       -4.2418751023
 O         -1.4993085810        7.3428200164        1.9729795543
 H         -1.9311353766        6.4500509852        1.9683887029
 H         -2.0606969670        7.9186468566        2.4900782758
 O          0.2515278115       -4.4339734340       -1.2571394511
 H          0.6521868528       -5.0499013907       -1.8976931059
 H          1.0079813632       -3.9195391872       -0.9088584800
 O          4.0269309046       -3.5646175094       -2.8170614959
 H          3.9162028525       -4.3251618382       -2.2223933101
 H          4.5948999718       -2.9641335934       -2.3137292621
 O          5.4433411277       -2.0477964727       -0.8855055865
 H          6.1578084508       -1.4246870804       -0.6875325528
 H          5.1421618917       -2.3974471914       -0.0256890314
 O         -3.3184164961       -5.7185916752        2.3036922236
 H         -2.4256088054       -5.6699731568        2.6979517405
 H         -3.8000559073       -6.3988451438        2.7716963617
 O         -5.2911423352        4.0492014241       -1.8462256398
 H         -4.7639522747        3.8465710750       -2.6349280383
 H         -5.7958962645        3.2383179067       -1.6870292347
 O         -2.8957914546        1.4076802718       -5.9435521778
 H         -3.3362198779        0.7087109665       -5.4129934544
 H         -2.4928628011        0.9267341303       -6.6935118924
 O         -5.0365774666        4.3960409126        1.0100597143
 H         -5.7049150998        3.7993955784        1.3775047259
 H         -5.1294265537        4.3407996929        0.0487867402
 O          2.8546671830       -2.4397809392        6.2953640108
 H          2.2062991861       -1.7791771150        6.5655132161
 H          2.3626181866       -3.0550293222        5.7189079285
 O          5.0832998837       -2.3537838885        4.8499067465
 H          5.0750207075       -3.2366105099        4.4600979853
 H          4.4438209903       -2.3933127660        5.5899581377
 O         -0.0044895255       -7.8453727527       -1.6630928884
 H          0.0013299216       -7.5107763527       -0.7533505910
 H          0.7264611403       -7.4006127672       -2.1156865812
 O          1.7719293184        4.8701998271       -3.7925052089
 H          1.3865022397        5.6146662542       -3.3050116372
 H          1.2070994160        4.7379263669       -4.5935955892
 O          2.1289762652        2.5964689696        1.4646709494
 H          2.5962727418        3.4138037969        1.7078868850
 H          2.3785139026        2.3333683671        0.5623194896
 O          0.2786996559        4.2260594002       -5.8544850932
 H          0.6182884727        3.9979023866       -6.7192074711
 H         -0.1022199493        3.3896072165       -5.4815709765
 O          4.8182791466        3.2032975498       -2.0565765914
 H          4.6710069353        3.5102682489       -2.9680699688
 H          4.6409144111        3.9624969464       -1.4794950014
 O         -1.7985692275       -2.9126858162       -2.3604262159
 H         -1.4188302860       -2.1518855121       -2.8484988135
 H         -1.0766002219       -3.4601271864       -1.9992656316
 O          0.9242650115        6.0894139580        2.0935398284
 H          0.1779923139        6.7064267002        2.0728062708
 H          0.9316178158        5.6431923649        1.2159623046
 O          3.9096363320        4.8696575126       -0.1084769772
 H          3.9765906902        5.6892984736        0.3831208533
 H          4.2425093630        4.1798105685        0.5078406900
 O         -0.6006224542        3.2243396849        1.1716791056
 H         -1.1463622530        3.8884204373        1.6275027147
 H          0.1211039879        3.6834019819        0.7145822858
 O          5.1134439941        2.8588751894        1.2420097949
 H          4.6632004888        1.9842183190        1.1133233861
 H          5.9773005494        2.7691689566        0.8383135922
 O          2.6877308158        1.1590029257        3.5324336442
 H          3.5036683483        1.5987940334        3.8302460094
 H          2.4339530040        1.6170742975        2.6867948195
 O          0.0452149710       -6.2811278411        0.6746814951
 H         -0.3541385676       -5.9755091147        1.5066657224
 H         -0.0751708503       -5.5486142446        0.0296674513
 O         -4.0238806587        1.6642258196        1.3103505713
 H         -3.6169128771        2.2221182184        0.6062990757
 H         -4.0351711245        2.2244733451        2.1163433659
 O          1.7894508913       -2.0001674543       -5.7154124807
 H          1.5649063377       -1.8861336305       -4.7650965687
 H          2.7735587182       -2.0599641780       -5.7312949997
 O         -3.0759376952        5.6528231124       -1.1721232096
 H         -2.5198636681        5.2759011978       -1.8896919827
 H         -3.9909913194        5.5200330848       -1.4413145752
 O          3.1800113847        1.6227286527       -5.0995782450
 H          3.5480191357        2.5067964649       -4.9706896418
 H          3.8748364775        0.9944021624       -4.8037657561
 O         -3.9279951758       -3.0171580592        1.7113123577
 H         -3.7573159924       -3.9285983580        1.9869883676
 H         -4.5232977621       -3.0626679692        0.9595850212
 O         -3.6088068362        3.0396222342       -3.8716088613
 H         -3.5485754136        2.2302605707       -3.3135685116
 H         -3.5082121927        2.7292042460       -4.7803062351
 O          6.6310398527        1.1517220012       -2.4620905550
 H          6.0817919275        1.9288587275       -2.2742246424
 H          6.8519761463        0.7639945189       -1.6059002153
 O         -3.7305277602       -2.7632118655       -5.8200451070
 H         -2.8029361943       -2.7714983519       -6.0911867493
 H         -3.8104291581       -3.4317726852       -5.1132704800
 O          1.1601228383        0.5021767211       -6.5864893024
 H          1.3599541902       -0.4183569606       -6.3192697452
 H          1.9414152497        1.0061904943       -6.3126348671
