  384
       -651.79943494
 O          3.1871909074        5.0198321652       -1.1302502113
 H          2.9634673714        4.1703070782       -1.5554352562
 H          3.0961369254        4.8987898200       -0.1618334359
 O         -0.1535323939        3.3760592196        5.2187826685
 H          0.0027772110        4.2534683217        4.8103514048
 H         -1.0625151227        3.1333521545        4.9489644660
 O         -1.7757380975        0.0262940054        6.5773976630
 H         -2.3199357549       -0.7761811300        6.6502493624
 H         -2.4076451983        0.7567087155        6.5649642257
 O         -1.6696478932       -2.6260337316       -2.3362399614
 H         -0.6953897540       -2.6542759336       -2.3693933891
 H         -1.9425407350       -3.5477215373       -2.5640738133
 O         -3.7573710956        3.4322672831       -4.4589238326
 H         -3.3864937697        4.2623563631       -4.0927363240
 H         -3.1544496616        3.1447999385       -5.1614912232
 O          1.6123278362        0.5920966092       -3.6931005872
 H          2.0150504200        1.4409778052       -3.4200923063
 H          2.1261253840       -0.1140843913       -3.2650468802
 O          2.6185523816       -0.3889886647        5.7860952918
 H          2.0013755653        0.2867531503        6.1502699336
 H          2.3245161720       -1.2306194121        6.1639071835
 O          5.0510544473        0.5262914708        5.1377959772
 H          5.6660959713       -0.1850952442        4.9173506471
 H          4.2597412988        0.1188946101        5.5430800779
 O         -2.8714151629        1.5991687788       -2.6593641319
 H         -3.2728043837        2.1499041026       -3.3542436598
 H         -2.0390866867        1.2374571522       -3.0287527163
 O          0.3982834657        3.5234602283       -1.4208468684
 H         -0.5454299383        3.6101583041       -1.1894316800
 H          0.4158878371        3.1432249372       -2.3067708710
 O         -2.5343740512       -2.3284891199        0.1543350567
 H         -2.6169302508       -3.1860013234        0.5940310634
 H         -2.2248309669       -2.5129621422       -0.7539536201
 O          1.3024890245       -0.7854088121       -6.1144162713
 H          1.3399391153       -0.1132487032       -5.4137428511
 H          0.4932143773       -1.3005150480       -5.9732724029
 O         -5.4461206833        0.8541898414       -1.1169939845
 H         -5.3902311914        1.7875048402       -1.3914817572
 H         -5.6599038966        0.3344386091       -1.9249891186
 O          0.7903069541        1.2714026146        6.7718475598
 H         -0.0437660464        0.8102639763        6.9300438308
 H          0.5558326418        2.1267683842        6.3829377501
 O         -5.2235162559       -4.8916483713        0.5805875940
 H         -5.9105556064       -4.2031391785        0.6430394526
 H         -5.2118248369       -5.1597685161       -0.3461775494
 O          1.8277247808        2.2146564490        0.3251179824
 H          2.7187922971        2.2042664529       -0.0639479987
 H          1.2479564865        2.6688527647       -0.3428571053
 O          0.7337295228        1.6693157007        3.4523825643
 H          0.4733020312        2.3122058864        4.1567671095
 H          1.7111976963        1.7278830006        3.4095684679
 O          4.7607717574       -2.2318937857        3.0423772085
 H          5.5057367634       -1.9930988263        3.6121880038
 H          5.1429925279       -2.4149528407        2.1591258828
 O          4.4446165642        2.3633119122       -0.3238079213
 H          4.4946668213        1.6330246168        0.3369893072
 H          4.6812837118        3.1918172525        0.1622681685
 O          4.3323582739        4.3578375367        3.5738527962
 H          3.8114368773        3.5406160406        3.4518050851
 H          5.1004897503        4.0937192484        4.0958223251
 O          0.0383402756        3.0302417902       -4.1821934538
 H         -0.7092154073        2.8176813417       -4.7497544894
 H          0.8364928574        2.8721065226       -4.7374081125
 O          2.4660155731        4.6041598112        1.4167595845
 H          1.6407715927        5.1000869544        1.3758066649
 H          2.2118900939        3.6740455301        1.2766788811
 O         -5.2581771894       -2.2612969196       -1.1731825043
 H         -5.0688590303       -1.9475909681       -0.2717355528
 H         -4.7660806297       -1.6943755325       -1.7978551211
 O         -0.9872679795        0.2932978789       -4.0023586439
 H         -1.2248882251        0.7725223678       -4.8130499310
 H         -0.0405582741        0.4913718365       -3.8285410921
 O          2.7924930576        2.9587370707       -2.8966143321
 H          3.7062341435        2.9253053771       -3.2698413417
 H          2.3948467325        3.6867777226       -3.4038758885
 O          6.9631357691       -1.5054827698        4.4897613546
 H          7.3016796424       -2.0176253471        5.2246314477
 H          7.5738672856       -1.6534624294        3.7415058385
 O         -0.8104755796       -2.3070891729        2.6174554045
 H         -0.4166438278       -3.1994712354        2.6890938816
 H         -0.5202277576       -1.8206718256        3.4143312278
 O         -3.6494723191       -0.9593878476       -2.8646899558
 H         -2.8414797996       -1.4733854537       -2.6766105563
 H         -3.4399607081       -0.0161005755       -2.7290620324
 O         -1.4271797344       -6.7321667084       -0.7769383107
 H         -0.5127220619       -6.9253720032       -0.5418519826
 H         -1.8169300378       -6.2409109686       -0.0362822658
 O          7.1560120759        2.5355401762        2.0870135749
 H          7.0953214213        1.5931939459        1.8406404167
 H          6.9921387148        2.5971588803        3.0418531775
 O         -1.0085722510       -2.0988118204       -5.2511121583
 H         -1.0226070257       -1.3671132142       -4.6021494509
 H         -1.9383710284       -2.1933101516       -5.5170836721
 O         -4.7349081363       -4.6199939634       -2.2829298271
 H         -5.1626390399       -4.3892310712       -3.1194224683
 H         -4.7718310486       -3.7807740694       -1.7762817987
 O         -2.3882949269        2.5060460067        4.0385667054
 H         -2.1764131544        1.7388851456        3.4883551732
 H         -2.9792966175        2.1987615889        4.7607012190
 O         -7.3516191100       -0.3325664334        0.3300252823
 H         -7.8601292345        0.3134720051        0.8237913848
 H         -6.6112521951        0.1447411512       -0.1045917374
 O        -10.0796441880        0.0889290439        1.6956257512
 H        -11.0260982345        0.0593646227        1.8396905866
 H         -9.7450714497       -0.8126389549        1.8764549677
 O          2.0306273952       -3.1648388538        1.3755729464
 H          1.9569051220       -2.7315467483        2.2382136094
 H          2.4562921955       -4.0402352302        1.5345206810
 O          7.0233443304        5.0198758440       -1.0169682287
 H          6.9119374171        4.1335294465       -1.4141697288
 H          6.3768158779        5.0559905809       -0.2930054669
 O         -4.9736706705       -4.8475778217        3.4427065642
 H         -5.3317787631       -5.1479935552        2.6014113303
 H         -4.3594202086       -4.1180100523        3.2113612549
 O         -3.4025102413       -2.2253883766        6.6186065373
 H         -3.6084048015       -2.5560798730        7.4929129437
 H         -4.2257324046       -2.3460687450        6.0864161679
 O          5.4003741149        4.3369577257        1.0916082829
 H          6.0837665897        3.7587770724        1.4835609624
 H          4.8179916777        4.5810024540        1.8357321470
 O         -0.7504007722        2.7935164484        1.5134484943
 H         -0.6710515487        2.2576080785        0.7030635260
 H         -0.1591512263        2.4252111373        2.1979177452
 O         -7.0786586890        2.5333231812        1.2802239114
 H         -6.7257506897        3.4110592261        1.5414616666
 H         -6.2901237574        1.9471471837        1.3987544412
 O          0.8446491093        6.3578195073       -1.3450390472
 H          1.7406817193        5.9674926389       -1.3477403229
 H          0.4119197624        5.9716405562       -0.5675544287
 O          4.2992684792        0.3945805002        1.3896998521
 H          5.2365190091        0.1492228715        1.5238617753
 H          3.9070613598       -0.3233899163        0.8373224471
 O          6.8162060256        0.7444228173       -5.0558241996
 H          5.8414028422        0.9402819429       -5.0177478075
 H          7.1637593623        1.3014156960       -5.7511866800
 O         -0.2316405628        5.6819889428       -3.6429104188
 H         -0.0726056622        4.7249521184       -3.7710207177
 H          0.1521801675        5.9255948141       -2.7594205278
 O         -4.8361960285        5.5254387778       -0.4130262921
 H         -5.4196883535        5.4106749752        0.3459454695
 H         -3.9698534784        5.7345311364       -0.0177931040
 O          2.9067045025       -4.0527261516        4.0366576847
 H          3.0581869348       -4.8109792516        3.4543870161
 H          3.5964570578       -3.4121578499        3.7925305806
 O         -5.5423737381        4.5376554828        2.1266868403
 H         -4.6910588940        4.1209429340        1.8730493801
 H         -5.5793854658        4.4660290400        3.0856841393
 O         -3.3773709942        3.1740682682        1.2401306622
 H         -3.1543405099        3.4233573749        0.3203679791
 H         -2.5035630680        3.0728654113        1.6558748488
 O         -8.6899795397       -0.7285259494       -1.9807719168
 H         -8.2083445421       -0.6620797624       -1.1294696444
 H         -9.4134805196       -0.0852272734       -1.8848428791
 O         -1.4635350717       -3.5164775001        5.1501022745
 H         -2.1089609608       -3.0758519387        5.7240016088
 H         -0.5880722898       -3.3899174849        5.5500225812
 O         -0.1310246850       -0.6288923738        4.5474936531
 H         -0.7651361138       -0.3972015243        5.2514829220
 H          0.2101327270        0.2171221353        4.1914757571
 O          2.3403949544       -1.1151082537        3.1769316052
 H          3.2754702159       -1.3417805632        3.0275475768
 H          2.3065077522       -0.7596838805        4.0844377917
 O         -1.9127618911        1.9789756357       -5.9930200190
 H         -2.6898499589        1.3870463674       -6.2469033966
 H         -1.4115400163        2.0996935899       -6.8008909316
 O          5.0585957060        5.7461345673       -2.9159142153
 H          5.8947303838        5.8369426667       -2.4383664296
 H          4.3918713235        5.5936485882       -2.2159356219
 O          3.5049881471       -1.5943734472       -0.0952827945
 H          4.3881927479       -2.0175879596       -0.0392929039
 H          2.9254487088       -2.1964267926        0.4286705756
 O          4.1942015726        0.8154883378       -5.0232178641
 H          3.9479204151       -0.0661394958       -5.3385892588
 H          4.1137694399        0.7826918126       -4.0395632434
 O          3.4921315888       -1.9308669900       -5.2550810317
 H          2.6935856664       -1.6141234601       -5.7445349987
 H          3.2731661970       -1.8011673298       -4.3142948089
 O         -0.2093138508        5.3306124704        1.0514426897
 H         -0.4026037019        4.3652301866        1.1063668977
 H         -1.0840752128        5.7491597590        0.9489021850
 O         -3.9231355192        0.4927103505       -6.5964092861
 H         -4.7238304222        0.8452933639       -6.1803332877
 H         -3.8333248521       -0.4239213020       -6.2605646376
 O         -5.9974812998       -3.0492938872       -4.2639097118
 H         -6.0344093531       -2.1471922758       -3.8830808197
 H         -6.8690171582       -3.4249944296       -4.1179632097
 O          2.5775495139        6.4630596513        3.8066821593
 H          3.1758984101        5.6942034835        3.7802032121
 H          2.7707288050        6.9652472628        3.0137860562
 O          2.4842355521        5.2035931363       -4.4109737861
 H          1.6949538059        5.7459758898       -4.2814674933
 H          3.2468641371        5.7039601042       -4.1041738392
 O         -7.3646179924       -3.1012783562        0.6632622035
 H         -7.0854224361       -2.1739299407        0.5602492007
 H         -7.6595649904       -3.3564210867       -0.2425546484
 O          8.3465501348       -5.0979071171       -1.5105276862
 H          7.4351871597       -5.3338868101       -1.7413425401
 H          8.6278815177       -4.4629381161       -2.1779115900
 O         -4.0777485603       -0.4449824957        4.2209408968
 H         -4.9588385633       -0.4187722654        3.8322287288
 H         -3.4554421425       -0.0805817455        3.5615182655
 O          8.3773348387        0.0596308888       -2.9484364864
 H          7.8783615129        0.4467698939       -3.6929912838
 H          8.8395315030        0.7725022605       -2.4858356069
 O          2.7942354500       -1.6993191023       -2.6464408262
 H          2.0813047030       -2.3681642138       -2.5550561635
 H          3.0247125824       -1.4294060239       -1.7328881188
 O          1.4971952945       -6.4110841036       -0.2233785138
 H          0.9296796424       -5.6169987355       -0.1290932352
 H          2.0287675492       -6.2684027577       -1.0215080719
 O          3.0645578279       -6.0287759134       -2.5306559207
 H          2.9164137557       -5.4068880412       -3.2841917964
 H          3.0339133822       -6.9049571463       -2.9168708182
 O         -2.7268164376        6.2765121672        1.1376993290
 H         -2.8342383802        7.2108982214        1.3139536951
 H         -2.8455713705        5.8157041275        2.0132156608
 O         -4.9818829655       -1.3965950000        1.4083916357
 H         -4.3113214818       -1.9644280403        1.8440356056
 H         -5.7566663810       -1.4011966079        1.9947128911
 O         -4.9503688193        1.2201713707        2.0363205700
 H         -4.2851790325        1.8347914709        1.6572343687
 H         -4.8312567349        0.3423523506        1.6234023407
 O         -2.5333072229       -4.9224529362        1.0899126699
 H         -3.4919027693       -4.9823462410        0.9186447799
 H         -2.4066150243       -5.1766969525        2.0311377905
 O          4.1107969286        0.5776276656       -2.3798527696
 H          4.9423785519        0.2283585033       -2.0089379400
 H          3.9377667406        1.3973622959       -1.9063369786
 O         -5.6229357376       -2.8090699057        5.2597505678
 H         -6.0655708680       -2.1695035900        4.6837801930
 H         -5.5273896325       -3.6274777561        4.7467798826
 O          0.2801658865       -4.7376456892        2.8661004116
 H         -0.3930247138       -5.3545310379        3.1690062731
 H          0.9924480557       -4.7340771140        3.5122894487
 O          8.4340245508       -2.0953972944        2.2776013527
 H          8.3192129758       -2.9680769909        1.8498449067
 H          9.1578528533       -1.6587530416        1.8116655131
 O         -0.0293522069       -4.2241504734        0.0397247704
 H         -0.8841984303       -4.4032057119        0.4541650581
 H          0.5361959723       -3.7976758470        0.7099063812
 O          6.8900500738       -0.0408319006        1.2653233716
 H          6.7718610622       -0.2259135528        0.3062650386
 H          7.3739421758       -0.7993107321        1.6302802418
 O          6.3281774495       -0.4464463911       -1.3109146715
 H          7.0969101359       -0.2779110129       -1.8938599167
 H          6.0374479196       -1.3565734919       -1.5294027022
 O          8.9582146028        3.7042043040        0.3939270185
 H          8.4066239198        4.3442314546       -0.1019692081
 H          8.3975326293        3.3624034259        1.1119709667
 O         -3.1528518301        0.2175767315        0.0189796229
 H         -3.0875645948       -0.7580654108        0.0109454710
 H         -3.9787738570        0.4669168498       -0.4480186876
 O         -8.2720951541        1.7428824704       -3.7395138852
 H         -8.1851533735        2.0865809626       -2.8329857882
 H         -9.2095832579        1.6625435404       -3.9104757060
 O         -7.7171970066       -3.2600314624       -1.9453469955
 H         -6.8116975062       -2.9037189216       -1.8700850954
 H         -8.2779554015       -2.4871698486       -2.1132334284
 O         -2.2866976136       -5.5977677519        3.6800873766
 H         -3.2340539934       -5.7155551854        3.8350039681
 H         -2.0253690632       -4.8468795803        4.2556833956
 O          5.2408257510        3.2235479642       -3.8758056549
 H          5.2350354948        4.1851153336       -3.6932078652
 H          5.8956445482        2.8436179175       -3.2768093137
 O          6.7280087706        2.4083318958       -1.6916413809
 H          7.4092752177        1.9214688063       -1.2239519434
 H          5.8882786587        2.2896420822       -1.1908712145
 O         -3.7235282895       -1.8838945711       -5.3622202883
 H         -3.7495093498       -1.5091791770       -4.4504440843
 H         -4.4573156234       -2.5078115197       -5.3815602771
 O          9.9997077124       -0.5830090057        0.3630979250
 H          9.8005449329        0.2648367974       -0.0879937320
 H         10.9377588533       -0.7370893466        0.2506956177
 O         -2.1792283646       -5.1613646844       -2.8359843418
 H         -3.1502002472       -5.1166074140       -2.7112176750
 H         -1.8642916774       -5.7822666314       -2.1471348618
 O         -5.8669526586        1.6031211506       -4.9707570771
 H         -5.3149159154        2.3659838613       -4.7579387214
 H         -6.7810563263        1.8344208553       -4.7370785271
 O          3.1236929854       -5.5558165187        1.7478046493
 H          4.0344447784       -5.6267454722        1.4227142230
 H          2.5557950503       -6.0517245594        1.1194119854
 O          1.1205210251       -2.7409509532        5.7339303173
 H          0.7615681510       -1.9907123808        5.2219406440
 H          1.7400967303       -3.2158238626        5.1607516382
 O          5.3444939334       -2.6649143185       -2.4331756100
 H          5.7384872009       -2.4829356646       -3.3113312123
 H          4.4012817205       -2.4334656131       -2.5255794839
 O          5.6696688762       -5.4193994307        0.7550574349
 H          6.5983120016       -5.4266861082        1.0304433442
 H          5.6640236426       -5.5134098287       -0.2276485327
 O          5.7381962202       -2.7714485930        0.6193510283
 H          6.6145681569       -2.6191973885        0.2139818915
 H          5.6389198986       -3.7457491887        0.6744722475
 O         -6.8513006857       -1.0525144528        3.3866105417
 H         -7.6152891262       -1.6133509596        3.1768126778
 H         -7.2388327469       -0.1511915832        3.4528111119
 O         -7.8895932251        2.8684429165       -1.2630956941
 H         -7.0778908814        3.2575037227       -1.6285309333
 H         -7.6650269617        2.7166819176       -0.3238038029
 O         -5.3183371851        3.4359140463       -1.9583828704
 H         -5.0810005291        4.2055427272       -1.3895841478
 H         -4.9154431447        3.5911071583       -2.8152687194
 O         -8.1799085393        1.2816000972        3.3479924846
 H         -9.0345881715        0.9539068271        3.0383041173
 H         -7.8502437741        1.8428300161        2.6093931206
 O          6.4059605077        2.8252561988        4.7273872621
 H          5.9012091116        2.0188149712        4.9506944305
 H          6.9470598916        3.0372274050        5.4873907033
 O          6.2388923386       -1.9865726028       -4.8653806175
 H          6.5092593912       -1.0605748621       -4.9886975206
 H          5.3649822195       -2.0709642053       -5.2767399684
 O          0.8629668824       -3.3798269745       -2.3102179926
 H          0.6062148872       -3.8297004732       -1.4854786875
 H          0.6441532758       -3.9629759597       -3.0719672941
 O         -2.0670503769        0.2085834714        2.4270347809
 H         -2.5073954399        0.3403524050        1.5608712617
 H         -1.7784158448       -0.7146982461        2.4374129622
 O         -5.8437101148        2.6106021953        4.2867902317
 H         -5.4688870860        2.1179370710        3.5362282382
 H         -6.7573894352        2.3196917866        4.3587153649
 O          3.3630725713        1.8410498979        3.3712136671
 H          3.6422717588        1.3349576232        2.5805070765
 H          3.8535831665        1.4405147745        4.1045779822
 O          0.0218204832        5.6184918514        3.7702241384
 H          0.9026694967        6.0075277776        3.9396130107
 H         -0.0217648579        5.5177447817        2.7991660944
 O          8.3093124674       -4.6430309660        1.1409106183
 H          9.0104503724       -5.2257735538        1.4321014821
 H          8.3640393372       -4.6294701613        0.1538387945
 O         -2.7465767257        5.5009166474       -3.1026661530
 H         -1.7828162686        5.6566006321       -3.3521996025
 H         -3.1343329507        6.3547835217       -2.9156358488
 O         -9.1148359611       -2.3659699391        2.4439398742
 H         -8.5316992521       -2.7499298114        1.7346043484
 H         -9.6014789084       -3.0937716064        2.8295823982
 O         -3.9896859491        1.5736735783        5.9462977811
 H         -4.7431728772        2.1256811184        5.6767417402
 H         -4.1302492861        0.7173041734        5.4883251123
 O         -2.7393271383        5.1854197691        3.5204825152
 H         -2.7296027130        4.2191927092        3.6274921618
 H         -1.8774063745        5.4901186781        3.8370909304
 O          5.5957616830       -5.2773856178       -1.8772465908
 H          4.7244776553       -5.6394837000       -2.1265318103
 H          5.5307432691       -4.3148182450       -2.0582913657
 O          8.1062310230       -2.3906394444       -0.5566466311
 H          8.7948960816       -1.7478696284       -0.3406810455
 H          8.1725412019       -2.5744390050       -1.5072574732
 O          8.4608881155       -2.6938038864       -3.2560985567
 H          7.7833480615       -2.8031466321       -3.9348529242
 H          8.6732418952       -1.7480017894       -3.2738953943
 O         -2.2899427284        3.7035280935       -1.1159907734
 H         -2.4873264112        2.8665644346       -1.5867775530
 H         -2.5303513262        4.4250010730       -1.7226158011
 O          9.6413173137        1.7048347973       -1.0732475850
 H          9.3713573502        2.4847991200       -0.4909809665
 H         10.4797362634        1.9710087646       -1.4522342479
 O         -0.0828702929       -4.5167099518       -4.4942566923
 H         -0.4212354286       -3.6715457551       -4.8580219733
 H         -0.8558482416       -4.9634529497       -4.1140043430
 O          2.1879527599        2.6872813644       -5.7401076194
 H          2.9050663938        2.0555682827       -5.5558599540
 H          2.5700449081        3.5667961386       -5.6444948233
 O         -3.3746056081       -2.7584716723        3.0173002770
 H         -3.5534699646       -2.1875098807        3.7816645644
 H         -2.3997442362       -2.7276938042        2.8764982920
 O          2.6939507646       -4.5562309758       -4.6861221834
 H          1.7442720926       -4.5860186969       -4.8663845009
 H          3.0229286790       -3.6998678890       -5.0049462200
 O         -6.3166806993       -0.4996667566       -3.2648199873
 H         -7.2626194004       -0.4583239573       -3.0226812802
 H         -6.1651222477        0.1640931460       -3.9574398881
 O        -10.1943735466        1.2686339076       -0.9720745345
 H        -10.1680338194        0.9753807796       -0.0516782699
 H         -9.5624074404        1.9964556720       -1.0467727523
 O         -0.7395941850        1.2118434102       -0.6260155157
 H         -0.1247306513        0.5123762261       -0.3380397354
 H         -1.6263870761        0.8488325266       -0.4892246346
 O        -10.6396904521       -2.2316158921        0.0621936448
 H        -10.1479292660       -2.8512998069       -0.4794841454
 H        -10.5351515478       -1.3665970557       -0.3424484242
 O          0.6061563805       -0.8782011968        0.4571312886
 H          1.2332506525       -0.4735500784        1.0622583936
 H          0.0128302909       -1.4080421713        1.0016387415
