  612
      -1033.76720107
 H          2.1137528675        0.8009172737        1.2553724253
 C          1.3856697775        0.2019547187        0.7177496800
 H          0.9052275911       -0.4914808420        1.4084592969
 C          2.0351091384       -0.5895661775       -0.3971082720
 H          1.2610510819       -1.0617632937       -0.9895028195
 H          2.6666502414       -1.3601504746        0.0301841357
 O          0.4273712871        1.1102699098        0.2139018587
 H         -0.1193558558        0.6393601002       -0.4568700791
 N          2.8406814408        0.2516119277       -1.2975241394
 H          3.3426698555       -0.3755204029       -1.9504895219
 H          3.5126763091        0.8183638515       -0.7442076397
 H          2.2010140451        0.8983784974       -1.8214487479
 O          3.0503383890       -4.0383721813       -1.5429314008
 H          3.7207906017       -4.6820200722       -1.8158483556
 H          3.4920112703       -3.4068289109       -0.9439966516
 O          2.2231110871        0.0190227404        4.4483416141
 H          1.6475810217        0.7881365861        4.5611681354
 H          2.7736559296        0.1697580070        3.6580634532
 O         -2.7089073309       -3.6224600920        1.7950380544
 H         -2.8167734083       -3.2152417761        0.9053707657
 H         -3.3493004185       -3.1246350573        2.3419203862
 O         -3.6047448798        0.3077444240        1.8969218991
 H         -2.7531096871       -0.1016150344        1.6334087269
 H         -4.3080726221       -0.1716301976        1.4151037487
 O          3.0558598084        3.8217680235       -1.5359385594
 H          2.7847253051        3.6976535823       -0.5956749560
 H          3.6843846877        4.5756013661       -1.5459452131
 O          0.5457001378        7.6004876641       -1.2005529674
 H          1.4824970843        7.6906372882       -0.9284723245
 H          0.4597823245        7.9764472435       -2.0798230913
 O         -0.4582346141       -2.8443064382       -0.4342960752
 H         -0.9323573975       -3.6982959127       -0.4303358048
 H          0.3897298332       -2.9790870046        0.0602524316
 O         -1.1268801748        2.3522771213       -1.3456368372
 H         -1.8971744876        2.3497125216       -1.9381325208
 H         -1.1663226691        3.2232569553       -0.9093132314
 O         -0.5809632216        4.1872953946        3.2536259034
 H         -1.3401931667        4.6238755253        3.6634886126
 H         -0.9338678864        3.6366419236        2.5325465704
 O          3.4050620582       -4.0642589414       -4.4001519635
 H          3.9226707815       -4.6211511966       -3.8024700435
 H          2.6160764978       -4.6062801354       -4.6101197108
 O          3.0483566549        2.7174134630        2.8970162211
 H          2.2498059679        2.5752460892        3.4584711879
 H          2.7032394540        3.0104746412        2.0288821721
 O         -1.6819292274        1.5315764936        4.1204391172
 H         -1.6163331042        1.7554502584        3.1690049643
 H         -2.4066823228        0.8926706499        4.2185004086
 O         -3.3691645744        0.2623732712       -1.0182471094
 H         -3.8676734339        0.3319850357       -1.8370846125
 H         -3.5062274424        1.1060406924       -0.5322639311
 O          0.2709081125        5.5940196167        0.9543594126
 H          0.2382074110        5.7880698549        1.9175086373
 H          0.5831247609        6.3910258289        0.5215893258
 O         -1.3583823672       -1.0136402825        1.4682027539
 H         -1.1559602423       -1.6660092196        0.7811403161
 H         -1.3417525212       -1.4964347084        2.3130245673
 O          1.2396023084        2.0762659278       -2.4061583794
 H          0.3505239234        2.1712835167       -1.9747633557
 H          1.7695010576        2.8348365274       -2.1274769985
 O         -1.2398180516       -2.2752733195        3.8629886543
 H         -1.9302163489       -2.7564000192        4.3353012274
 H         -0.9852794171       -1.5294627870        4.4558284418
 O          1.7559414262        3.4230487993        0.6908129728
 H          1.1975338495        4.2195238384        0.8172043791
 H          1.1578623608        2.6913195210        0.4663031727
 O         -4.3808249009       -5.7332354350        1.8160957734
 H         -5.1146640628       -5.4764831203        2.3958097339
 H         -3.8263250605       -4.9275790120        1.7125485707
 O          5.8298409886       -4.7226229665        0.0587666550
 H          6.2029510958       -4.1459645557        0.7453255200
 H          4.9301023765       -4.9652701236        0.3516330385
 O          1.3955939521       -2.3160931052        3.3420146987
 H          1.6173649954       -1.4629880663        3.7483459550
 H          0.4573057408       -2.4802358116        3.5182818464
 O          0.9842068398       -2.7973743000       -2.6956300630
 H          0.3343222342       -2.8446021098       -1.9665570683
 H          1.7631211166       -3.2812770576       -2.3584936357
 O         -3.2432072287       -2.3790275434       -0.4783700341
 H         -3.2285909443       -1.4103844200       -0.5354368215
 H         -2.7537507631       -2.7061210568       -1.2531278132
 O         -0.8779724337       -0.7660055996       -6.3665223457
 H         -0.5212356747       -1.5866276377       -5.9813093224
 H         -0.1378570481       -0.3090037913       -6.7853198227
 O          1.0063239858        2.4814818896        4.5030167602
 H          0.3722323932        3.0934652221        4.0580700678
 H          1.4008243178        2.9924722459        5.2324530195
 O         -2.8977895466        5.5354967318        4.0591858067
 H         -3.2297653955        5.3539558219        3.1466275694
 H         -3.6542889560        5.4439702529        4.6405923884
 O         -0.9099899626       -0.3718762794       -1.6308521307
 H         -1.8064437738       -0.0568218353       -1.3834595829
 H         -0.8683093357       -1.2968201474       -1.3555462615
 O         -5.4726293278       -0.9472866293        0.4984987833
 H         -5.0627054791       -1.5736067353       -0.1107035145
 H         -5.7267237231       -0.1507113740       -0.0086169634
 O          4.4171503670       -2.2495889034        0.0183856356
 H          4.6295775527       -2.4981058718        0.9309698884
 H          5.0651323608       -1.6209732931       -0.3188927400
 O          4.4257662493        1.7063513847        0.4215269985
 H          4.3860116634        2.6715342784        0.5692059594
 H          5.3525349104        1.4603249115        0.5530024212
 O         -1.5011486139        2.3070377356        1.6081067119
 H         -2.2947640821        2.3578447195        1.0481662247
 H         -0.8375676950        1.7910613948        1.1156927185
 O          5.7932086420       -0.1978398626       -1.3946542740
 H          6.3032398353        0.0005199606       -0.5924564391
 H          5.4938926084        0.6568143095       -1.7471419705
 O          1.2481164769       -5.5990638411       -4.8408528654
 H          0.6238729289       -5.3988385109       -4.0953856945
 H          0.7604944323       -5.4402447850       -5.6496997141
 O         -4.1647105820        2.7344365898        2.9561207220
 H         -3.9859489353        3.5240299495        2.4110990437
 H         -3.7635624512        1.9660320408        2.5098312978
 O          3.0316585421        7.4662409552       -0.2329599555
 H          3.0480085988        7.0564861893        0.6499852556
 H          3.8972832931        7.8681577620       -0.3490267878
 O         -3.7155329524        2.6015360689        0.0888647728
 H         -4.6209900863        2.8902264128        0.3100916056
 H         -3.3156558541        3.3511541403       -0.3707321775
 O         -2.2266420287        5.8469526729       -2.8493613464
 H         -2.8802743779        6.5092678074       -2.5457342925
 H         -1.4410104855        6.3261403105       -3.1652400674
 O         -3.1632555848        2.9427301976       -2.9555981329
 H         -2.4298860462        3.3852883732       -3.4138240470
 H         -3.6864309766        3.6347104817       -2.4886923155
 O         -4.2754950735       -4.8016010478       -1.7002929082
 H         -4.7495372703       -5.5761251142       -1.3217306013
 H         -4.5816852292       -4.0544346959       -1.1556109583
 O         -3.5048618984       -0.4530822602        4.3727598450
 H         -3.5063256832       -1.4140563528        4.4504684594
 H         -3.7421387208       -0.2406224161        3.4392236945
 O         -5.2755171400        6.8869312598        0.4389895929
 H         -5.3156133768        7.5680695322        1.1099271122
 H         -6.2116667426        6.6171737186        0.2740933389
 O          2.5204935434       -4.7801645510        3.2180892560
 H          2.4685967711       -4.7744026695        4.1961136525
 H          1.6328398628       -4.5377950858        2.9203145057
 O          8.5467006103        0.8159614223       -0.8804098662
 H          8.4861048773        0.9859165390       -1.8437619928
 H          9.4313727516        1.1237431938       -0.6088733069
 O         -3.0785260179        4.8096998310       -5.2596507718
 H         -2.7462999366        5.1556739482       -4.4051748866
 H         -2.6482568129        3.9512193695       -5.4286367521
 O         -4.0403471638        3.0183870172        5.6432845138
 H         -3.1391124117        3.2792412914        5.8958638075
 H         -4.0114761511        2.8424214967        4.6792353813
 O         -1.8607009394       -5.1949452600       -0.4318079754
 H         -2.7278096066       -5.0822440536       -0.8544398745
 H         -1.9630652733       -5.8156125405        0.3002706781
 O         -0.3905537294       -5.2811495510       -2.8368382677
 H         -1.0381850744       -4.5443588951       -2.8377572207
 H          0.0589670591       -5.2256273985       -1.9535993357
 O         -0.0965781429       -4.6497172541        2.0205078118
 H         -0.9384302313       -4.1745550787        1.9606894086
 H          0.1820768466       -4.8460707581        1.1080481308
 O          6.6434191350        4.1072139702       -2.5152489453
 H          5.9024888502        4.7344654732       -2.3672182678
 H          6.8613725807        3.7433240518       -1.6349009965
 O          6.6770605243        4.9683946094        4.1022468924
 H          6.7941312266        4.1777312741        3.5089002272
 H          7.2501895809        4.8471400007        4.8572777713
 O          5.1150857875        1.5601452916        4.0487262943
 H          4.3378742381        1.8629464061        3.5312145333
 H          5.2335646651        0.6206262763        3.8298321767
 O          4.4696146520        4.3812067302        0.7771482920
 H          3.7835160440        4.9185316684        1.1969291166
 H          5.3004604298        4.8435081735        0.9722383258
 O         -6.4164833743       -0.6152054477        3.7950946248
 H         -7.3384133966       -0.9231962713        3.7478412862
 H         -6.3893975928        0.2073601032        3.2676211985
 O         -6.2486758599        2.6908239890       -2.8497558627
 H         -6.7361193961        1.9739833963       -3.2849569439
 H         -5.8382607207        3.2077494047       -3.5532293769
 O         -9.0876338856       -1.3348278743        4.0400343801
 H         -9.5100785080       -1.7150907028        3.2538584730
 H         -9.4841951552       -0.4628040845        4.1733320003
 O          3.3461779410       -5.4805302492        0.7704588870
 H          3.1911976777       -6.3602555610        0.3823998435
 H          3.1835479495       -5.5762475530        1.7226250693
 O          2.1247159915       -4.6083447131        5.8330842717
 H          1.2555083949       -5.0411812486        5.8782593107
 H          1.9306461310       -3.6658077765        6.0021849643
 O         -1.9256414102        7.5073782936        0.1791537624
 H         -1.0839842455        7.6716937949       -0.2642464527
 H         -2.6169892447        7.7482976670       -0.4430702467
 O          1.3224802806       -2.0950258744        6.4368279166
 H          0.9032099622       -1.4804952995        5.8076260595
 H          1.8312684820       -1.5079587247        7.0134333349
 O         -4.9079795220       -2.6277576281        2.7968529446
 H         -5.4481688210       -1.8962297532        3.1498805086
 H         -5.2982072885       -2.8493024007        1.9401537013
 O         -2.1171621977       -3.2442659471       -2.7697915616
 H         -2.9411595769       -3.7214502839       -2.9158667816
 H         -2.1767431091       -2.4429895356       -3.3442272846
 O          2.7510952414       -7.8423207917       -0.5333774877
 H          1.8842163120       -8.1184313661       -0.2085390459
 H          2.6437771873       -7.7398342052       -1.4977060629
 O          0.0760337252       -3.0672946523       -5.2110578124
 H          0.2771055506       -3.0054491282       -4.2530088446
 H          0.9162086195       -2.8784916172       -5.6592327155
 O         -2.5777486997       -1.1589995922       -4.2446898280
 H         -1.9693640366       -0.7814378075       -4.8913439796
 H         -3.1952149247       -0.4551356445       -3.9848600876
 O          4.2287609478        0.5259779178       -4.5223474555
 H          4.1222031322       -0.3392406065       -4.0795567250
 H          4.3996555868        1.1679840896       -3.7985873187
 O          0.0052615126        6.9488782945       -4.0217065446
 H         -0.1627100959        6.5476862709       -4.8822476268
 H          0.9282792715        6.7093896244       -3.8224660386
 O         -1.7845673289        7.8356427504        2.9400316671
 H         -2.2700537431        7.1144141972        3.3716383715
 H         -1.9161533707        7.7296628792        1.9826999489
 O          1.8111776684       -3.0762475493        0.8565555589
 H          1.7036877724       -2.7744815388        1.7807618363
 H          2.3681888164       -3.8636478187        0.8680402505
 O          4.0060614477       -1.6745348001       -2.9968201422
 H          3.4870025186       -2.4261980408       -3.3057460049
 H          4.7881170701       -2.0753534118       -2.5637367614
 O         -9.6341595071       -3.5906976327       -2.1509842883
 H         -8.8230320342       -3.0993971667       -1.8509438968
 H         -9.4280390265       -4.5149437514       -1.9879660275
 O         -3.0542049718       -2.1188150526       -7.3811031229
 H         -2.3203023276       -1.5301993546       -7.1296331314
 H         -2.8525426479       -2.9723599618       -6.9769930142
 O          0.0473635995        5.5163313202        5.8400975177
 H         -0.5428325231        4.7229555724        5.8400370289
 H         -0.4556923124        6.2259586877        6.2380013201
 O          8.2489452906       -6.6886634565        1.4132993952
 H          8.2600649499       -6.6754002838        0.4489123534
 H          7.3465606683       -6.9194784645        1.6725445950
 O          7.9453478847       -1.7931513479       -0.5961246993
 H          8.6054552004       -2.4707504613       -0.8293754409
 H          8.3034890214       -0.9024717567       -0.7647327594
 O          0.0850941054       -7.8940389052       -0.0604929101
 H         -0.4207400621       -7.9324441970       -0.8910948174
 H         -0.5553694892       -7.7382640758        0.6431732082
 O         -4.4736806645       -3.1817407769       -4.4193916128
 H         -4.6997208646       -2.4211749664       -4.9867443611
 H         -3.7281269360       -3.6093556360       -4.8894511778
 O         -4.3958573197        0.7236866900       -3.5790849295
 H         -3.9576706130        1.5724817011       -3.3391804543
 H         -4.7498445882        0.8947307927       -4.4746403363
 O          5.9268656313        7.5692805253       -0.5812887802
 H          6.7628662067        7.4220141445       -1.0649494927
 H          6.0705393930        7.1399135095        0.2818712649
 O          0.8503132137       -5.3183744388       -0.5346688548
 H          1.7584800396       -5.0174731666       -0.7293365327
 H          0.8495815238       -6.2690771343       -0.3398890133
 O         -6.1437916155        4.6268309509        5.1698128513
 H         -6.8957992654        4.0253175649        5.0452729835
 H         -5.4131169187        4.0623754140        5.4799313868
 O          6.8775865226        2.8645412974        2.5648709464
 H          6.2089715988        2.3356064465        3.0577617340
 H          7.7395247409        2.4401020061        2.7585106650
 O          4.6722740849        5.7986490503       -2.0643935825
 H          5.0485916369        6.4892768676       -1.4685787885
 H          4.0158295715        6.2254714326       -2.6389020432
 O          0.5784816262        6.7326728104        3.3531031277
 H          0.4479984611        6.2076777028        4.1578023180
 H         -0.2270533601        7.2911402209        3.2535692082
 O         -6.1091148382        6.1809093422       -3.3194636349
 H         -5.9618661257        5.5739972468       -4.0599287635
 H         -6.9370123266        5.8839757389       -2.9039180285
 O         -5.3264862866       -1.5573444335       -2.4067190260
 H         -5.2452110815       -0.7059604803       -2.8568839086
 H         -4.8819013040       -2.2009593908       -2.9766027721
 O         -4.5554240977        4.7252336431       -1.6118651658
 H         -5.0434478597        5.3298311845       -2.1925352491
 H         -5.1537348145        4.5126466754       -0.8742745050
 O         -3.3013765202       -3.0997292806        5.4964453672
 H         -4.1612188050       -2.7449582089        5.7976463553
 H         -2.6702577203       -3.0166426645        6.2369413307
 O         -5.4117603552       -6.7975820350       -0.3992310803
 H         -4.8062056306       -7.5397539392       -0.5882295022
 H         -5.0982624361       -6.4564816400        0.4685322668
 O          7.0631443174       -4.8875048952       -3.6675849799
 H          7.1167178816       -4.4953001859       -4.5426861436
 H          6.8119475785       -4.1342072872       -3.0728004471
 O          4.8170203856        2.0881363566       -2.4897533642
 H          5.5735859539        2.6748901095       -2.6629165959
 H          4.1279550755        2.6738806991       -2.1016718551
 O         -2.5450043298       -5.2864789060        4.0883154901
 H         -2.3787294217       -4.8059025986        3.2679005450
 H         -3.0757619817       -4.6804016644        4.6296446992
 O         -7.8225737160        6.2705647014        0.0084257415
 H         -8.3436187569        5.9098939394        0.7352091389
 H         -7.9355146278        5.6628799063       -0.7458125360
 O          2.3172559946        4.0714561108        6.2751876864
 H          2.9572862316        4.4330187827        5.6230035733
 H          1.5943845984        4.7233345129        6.2802580367
 O         -5.5513690007        4.1615802417       -5.2097206169
 H         -5.9381461450        4.5551010703       -5.9914172484
 H         -4.5741183033        4.4322647260       -5.2163663973
 O         -8.6118431723        2.9294396475        0.2850730269
 H         -8.6253676619        2.0450519689        0.7094097537
 H         -9.4742883070        3.0007637629       -0.1633151388
 O          8.6279886402        1.3667363881       -3.4937858088
 H          7.9394016852        1.0999821949       -4.1301225934
 H          9.3248847525        0.6953008010       -3.5336997164
 O          6.5562495935        5.9886975366        1.5215581956
 H          6.5629314392        5.9399584906        2.4849256610
 H          7.4341813147        5.6807397521        1.2172561680
 O         -3.2543553980       -8.3606877059       -0.6166923076
 H         -2.6080641225       -8.2000284068       -1.3151506283
 H         -2.8267449555       -8.1236784834        0.2182752950
 O          1.5530967311        0.1470118113       -7.5415478213
 H          1.8650609544       -0.7391372737       -7.3322055206
 H          2.3342963095        0.7191367872       -7.4577629247
 O          9.1311240728       -0.5717678949        1.8526383314
 H          9.8045598584       -0.8112232158        1.1973362805
 H          9.1340892077       -1.2259897897        2.5748671137
 O         -1.6893698254       -0.0155285051        7.6946836524
 H         -1.2811105203        0.7583131075        8.0886417089
 H         -2.6143053135        0.2314716776        7.4401154668
 O          4.3454199895       -2.8780972190        2.6678847102
 H          3.5742003391       -3.4554143801        2.8621648974
 H          5.1204486749       -3.4377493587        2.8354896816
 O         -0.4908825514       -5.3718659954        5.8123075920
 H         -0.7893960269       -4.7871371729        6.5145207713
 H         -1.2186631268       -5.3724976128        5.1531468223
 O          6.6741354635        0.3843781021        1.1092806518
 H          6.3628133506       -0.0274651034        1.9419747195
 H          7.6190742006        0.1821215934        1.0914301103
 O          3.9608400225        4.7917176205        4.2821190667
 H          3.7325741776        4.0182588201        3.7123267011
 H          4.9293099686        4.8651024042        4.2953057122
 O         -1.3684420062        3.2783330856        6.0809553090
 H         -1.3874386065        2.7026965082        5.2818511671
 H         -0.7980167148        2.8082564055        6.7114996271
 O         -1.2211835578       -7.7180638560       -2.4879213394
 H         -0.6887829310       -8.2436953541       -3.0851879005
 H         -0.9344027302       -6.7668169082       -2.6094491031
 O         -5.5770843302       -1.7642219542        6.0899619855
 H         -5.3247700958       -1.0966354381        6.7378472691
 H         -5.8101607144       -1.2560468447        5.2842747221
 O         -9.0926498697        0.5481970257        1.3248460033
 H         -8.5799100336       -0.2955836167        1.4243352741
 H         -9.8789217629        0.3373537046        0.7869511050
 O         -7.7888657722       -1.6673072619        1.5829099887
 H         -8.0989969712       -2.5162005223        1.2372884745
 H         -6.9077940972       -1.4786336715        1.2037895121
 O          2.4835814466       -1.9670725763       -5.9376360592
 H          2.1943676775       -1.3210537969       -5.2340014466
 H          2.9422253110       -2.6757742341       -5.4673836235
 O        -10.1820788395        3.0718058308       -2.7777855357
 H        -10.7332640926        3.2557361325       -2.0062990105
 H        -10.3405258377        2.1365497051       -2.9708572494
 O          7.1092843532       -1.0555928810       -3.6381096923
 H          6.5466545685       -1.6809616617       -4.1266171277
 H          6.6407358024       -0.8034464530       -2.8218022080
 O          3.8747640451       -0.1415610944        2.3826427285
 H          3.9971105227       -1.0801223035        2.2065755066
 H          4.0918783913        0.3828662879        1.5982507651
 O          4.8545529553       -1.1272295510       -7.1038267225
 H          3.9684095893       -1.3923873994       -6.8034236166
 H          4.7662849869       -0.2089571150       -7.3824610039
 O          7.1808061091        2.9803867356       -0.1218331725
 H          6.9068560572        2.9307087373        0.8139353279
 H          7.6329582877        2.1366488536       -0.3331455483
 O          4.0902183056        1.8074542934        6.5041557400
 H          3.5805812338        2.6251038137        6.5343951079
 H          4.4473918430        1.7390457714        5.5890576894
 O          2.9730801117        6.2391263543        2.2100469578
 H          3.4487691610        5.9105361660        2.9935005326
 H          2.1089367738        6.5074570538        2.5669881759
 O          5.4673065362       -6.9461277905        2.1041557736
 H          5.6073741886       -6.1281942739        2.6161075997
 H          4.5879225652       -7.2636094806        2.3551438365
 O         -5.7987040515       -3.6563900105        0.2821104387
 H         -6.1367540071       -4.4559616305        0.6894582243
 H         -6.5335837244       -3.2410942078       -0.2004021520
 O         -4.0566332932        7.5952436451       -1.8815227856
 H         -4.4802429183        7.2831851835       -1.0540490399
 H         -4.7474195990        7.5111860834       -2.5482884248
 O         -0.7877505631        0.9491321636       -4.0171268900
 H         -0.6208276884        1.8968151925       -3.8646539432
 H         -0.9071211349        0.5335414633       -3.1450779382
 O         -8.0930344739        3.0054037037        4.0329801052
 H         -8.4270528004        3.7295497785        3.4709585732
 H         -7.4932886554        2.4922545048        3.4512288225
 O          1.8580325532        2.0792354341       -4.9449019365
 H          1.4760297685        2.1143443552       -4.0384237079
 H          2.4138723094        1.2876986386       -4.9353311479
 O          2.5829162978       -7.4095284350       -3.2012123804
 H          2.0530330643       -6.9182714545       -3.8419529329
 H          3.4415722124       -6.9564072773       -3.1783293432
 O         -8.0015583077        4.6066225864       -2.1375138057
 H         -7.3403184963        3.8901637002       -2.2105480463
 H         -8.8361037606        4.1986295275       -2.4178223451
 O          1.5193115496       -0.5030447015       -4.0015697835
 H          1.2926898473       -1.2420753251       -3.4106362465
 H          0.6899371735       -0.0075582552       -4.1480810681
 O         -7.4325816703       -3.4827009745        4.8391717186
 H         -8.0790618606       -2.7965308121        4.6211680094
 H         -6.7607388271       -3.0479827498        5.3808907963
 O         -5.2086648489       -1.2174132544       -6.1530588970
 H         -4.4781761008       -1.5355388334       -6.7377054103
 H         -5.1923667313       -0.2539758089       -6.2269852592
 O         -1.8646494044        4.6951547984       -0.3841582410
 H         -1.0992909246        5.1119831060        0.0575478688
 H         -2.0196817238        5.1650577231       -1.2261948977
 O         -0.6796911878        3.6770023772       -3.9063506088
 H         -0.2956750977        4.1329255468       -3.1304846058
 H         -0.3332329374        4.1477595112       -4.6815119968
 O         -2.0498432721       -7.1543032597        1.6520846797
 H         -2.8876322833       -6.7898106655        1.9855826782
 H         -1.4450401534       -7.1810131463        2.4139944444
 O         -6.7382671418       -4.2540595379       -3.6119300858
 H         -6.9714152457       -4.9458956377       -4.2307342823
 H         -5.8062224930       -4.0050410298       -3.8147653924
 O        -11.4602948037        3.3201136775        2.4845739686
 H        -11.0052040414        2.5627541203        2.9276665396
 H        -12.3215398274        3.3951244328        2.8931988300
 O          0.5723334539        4.9309626077       -1.8986677161
 H          0.4433961834        5.8653863298       -1.6827147237
 H          1.5252098954        4.7706146948       -1.8669063748
 O         -6.3682461927        1.2950333123       -0.4943510506
 H         -6.0974518492        1.8683364360       -1.2250201088
 H         -7.2837212655        1.0324252416       -0.6821693478
 O         -4.0918035745        0.5615284512        6.7586823727
 H         -3.9261166544        0.1671730668        5.8761282966
 H         -4.2096337694        1.5084778249        6.5589091186
 O        -11.5156421032       -2.4553778949       -0.6794195632
 H        -10.8062086722       -2.8832471796       -1.2189974062
 H        -12.3173850451       -2.9548095924       -0.8299833358
 O         -2.3335953295        2.1950433549       -5.8867493355
 H         -1.5821506301        2.3186426277       -6.4922683012
 H         -1.9631283047        1.6221006233       -5.1906746071
 O          9.3111887100       -3.9707530693       -1.2443853967
 H         10.0731048345       -4.0628507316       -0.6600658499
 H          8.7959687293       -4.8003200820       -1.1982072197
 O         10.6197259429       -0.5184823027       -2.7959464912
 H         11.4570478922       -0.4691808104       -3.2543752143
 H         10.1506988894       -1.3420043666       -3.1414320112
 O          9.1549191416        1.6717876227        3.2307905198
 H          8.8853978244        1.3060245170        4.0920623125
 H          9.2155080780        0.8811298056        2.6449469974
 O         -3.2047247208       -6.1609574487       -3.8700489226
 H         -2.7249947444       -6.8827095066       -3.4496642834
 H         -3.6669123005       -5.6951739228       -3.1585790721
 O          5.8553870716       -2.8504561338       -5.2480934725
 H          5.6599368190       -2.2843701161       -6.0111467271
 H          5.0286639944       -3.2893697669       -5.0132050868
 O          6.3621777364       -0.8728009766        3.4178446987
 H          7.1287601844       -0.6247495896        3.9535286696
 H          6.5924151046       -1.6910079978        2.9362951244
 O          2.7221050675        6.4849106866       -3.8363306984
 H          2.8671992931        5.6349929691       -4.3294422373
 H          3.0259009249        7.1825335025       -4.4170959443
 O          8.1961101437        0.2246132854        5.2643415481
 H          8.7699432170       -0.5277483163        5.4253517705
 H          7.4026566003        0.1146291099        5.8355407508
 O          3.1625089592        4.3403844429       -5.2826049777
 H          4.1137653743        4.1308687414       -5.2582280224
 H          2.7000484301        3.4851479971       -5.1140842945
 O          8.1235266913        6.3967230717       -1.7606417825
 H          8.5306145801        6.0394306968       -0.9557466823
 H          7.6805962435        5.6456702684       -2.1857446181
 O         -6.8345199929       -5.1390522679        2.9076101101
 H         -6.9453233230       -4.4220152653        3.5888842411
 H         -7.1286518016       -5.9399554973        3.3414981055
 O          2.7335024990       -7.6587356010        2.5364557192
 H          1.8750540852       -7.3607911553        2.8906507064
 H          2.5775958029       -8.5186939322        2.1476858789
 O          2.4702407400        0.0588788399        7.6798570700
 H          3.0716483974        0.6186604246        7.1353692086
 H          2.8689537135       -0.0065231482        8.5467985111
 O          6.0831142638       -4.7471541801        3.5931498767
 H          7.0242307170       -4.7584442006        3.7707335338
 H          5.6180480872       -4.6499632829        4.4569411757
 O          9.7230004411        3.4896505248       -2.0829953692
 H          9.2652356628        2.9003632440       -2.7026960912
 H          9.5698915859        4.3893582645       -2.3743067589
 O          0.4828675466        4.9983531067       -6.0306935883
 H          1.4383832793        4.9080057934       -5.9210771242
 H          0.2298322906        4.3014393504       -6.6534677810
 O          7.0030031099       -2.8295954046        1.6625385939
 H          7.3128131005       -2.3228209857        0.8839822540
 H          7.7648059780       -3.3734871139        1.9386519749
 O          9.3026422488       -2.5534867117       -3.6150203434
 H          8.4424756362       -2.0726097168       -3.6406204949
 H          9.2536852892       -3.1961474762       -2.8901745539
 O          5.7501834029        3.5279864662       -5.1611920965
 H          6.1684823725        2.6880395840       -5.4047453591
 H          6.2195967270        3.8337913045       -4.3757691214
 O          3.9219914690        1.5298095107       -7.0429750639
 H          4.0628410458        1.2584919481       -6.1171781828
 H          4.1560108481        2.4574989585       -7.0912792611
 O         11.2296695832       -3.4148497814        0.6686768620
 H         12.1430680389       -3.6488419420        0.8303196380
 H         11.2182722257       -2.4741900928        0.4054429597
 O          9.1227016538       -4.3581103595        2.2821040013
 H          9.8778670441       -4.1259981055        1.7234513884
 H          8.8398053485       -5.2647186597        2.0111537369
 O          4.7755830761       -5.8518606134       -2.6738947840
 H          5.0286204785       -6.3466841958       -1.8633538089
 H          5.6216480671       -5.6295448561       -3.1155104947
 O          5.4688240989       -7.3951805374       -0.5814722396
 H          4.6903238922       -7.9624296414       -0.6216718304
 H          5.5144809382       -7.1082644714        0.3541308868
 O          9.0045640754       -2.2639521133        4.0180924113
 H          9.2097716921       -3.0999258502        3.5777482997
 H          8.3796724138       -2.4967863532        4.7301584116
 O          0.1131691215        2.4672451212       -7.0052402767
 H          0.6694048102        2.2659806751       -6.2223718822
 H          0.3638489407        1.8065723779       -7.6559430791
 O        -10.0808770499        1.2990452036        3.6069349129
 H         -9.4032793284        1.8850455844        4.0109702317
 H         -9.6617045865        1.0160096769        2.7475555934
 O         -7.5911192110       -2.2326637204       -1.2636811210
 H         -8.0186454122       -1.3628777888       -1.1305726222
 H         -6.7905611216       -2.0371947449       -1.7981506132
 O         -8.6582040336        0.2140367348       -1.4288014609
 H         -9.6162096563        0.2947387023       -1.5315068486
 H         -8.3042443537        0.3925418967       -2.3229484761
 O        -11.2573314730        2.8638116017       -0.2374422281
 H        -11.4234221125        1.9066129843       -0.2453131378
 H        -11.4429472133        3.1457155492        0.6739763661
 O         -0.3609929281       -0.3232613384        5.3835671367
 H         -0.8301490349       -0.2327122761        6.2365721346
 H         -0.6011544422        0.4691607436        4.8627415090
 O         -6.0369436306        3.8685020881        0.4890121790
 H         -6.0821612927        4.4435829652        1.2813300019
 H         -6.9350476548        3.5634431948        0.2994620489
 O          7.2885530280       -2.8043594988        6.0686414390
 H          6.5654192293       -3.4428839127        6.1166912820
 H          6.9466464423       -2.0065280964        6.4882408992
 O          0.5327872287        2.0485194729        7.6316298393
 H          1.0404776068        1.2209710799        7.5623449126
 H          1.1749708820        2.7539525300        7.5049650808
 O         11.0263001319       -0.8212832156       -0.1492382465
 H         11.3041543688        0.0883242599        0.0290563556
 H         10.8174071042       -0.8033435181       -1.1104099881
 O        -10.8917548085        0.3672040060       -2.9505257725
 H        -10.6423867732       -0.4382064497       -3.4657838517
 H        -11.8387767897        0.3278052472       -2.8240589677
 O         -7.7488696824        0.6550062047       -3.9168998601
 H         -8.4995834639        0.9739938831       -4.4192491787
 H         -7.5736326850       -0.2672202682       -4.2167659320
 O         -1.2353836782       -2.7701265652        7.2441251900
 H         -0.3080985276       -2.6433642618        6.9647124309
 H         -1.4799446026       -1.9271153030        7.6481434512
 O         -7.4471163983       -1.8318611021       -4.7681247601
 H         -7.2327504341       -2.6279868051       -4.2470830314
 H         -6.7227469225       -1.7102246906       -5.4082752792
 O          4.8299543688       -4.1590090632        5.8597012225
 H          4.0083302568       -4.6414655593        6.0234751056
 H          4.5326192799       -3.2410095927        5.6781813419
 O        -10.5957500541       -2.5406435260        1.9512816403
 H        -10.9416144584       -2.4214047514        1.0517884551
 H         -9.9894654360       -3.2892286509        1.8619598624
 O        -10.1493507631       -1.8403377446       -4.2141044597
 H         -9.2677341144       -1.8095527830       -4.6143840734
 H        -10.0960326312       -2.5478621420       -3.5514585797
 O         -9.0599390140        4.7343898935        2.1372033562
 H         -8.8498342364        4.0510038297        1.4477828170
 H        -10.0020954429        4.6210043873        2.3107339460
 O          5.9694612350       -0.3231420148        6.6209603651
 H          5.3417632622       -0.7929572785        6.0202960685
 H          5.5125074754        0.4850803082        6.8749960522
 O         -6.3231690822        5.4412291396        2.6415467277
 H         -6.1302912268        5.1766946292        3.5662557390
 H         -7.2745981441        5.5724440046        2.6091348501
 O         10.6508078383        3.5411530819        2.0724571434
 H         11.3838803054        3.8097323342        2.6248377982
 H         10.1165044395        2.8996123521        2.5873194105
 O         -8.6215172348       -4.2573346079        1.0437289999
 H         -8.3884770055       -4.6941232744        0.2057847960
 H         -8.0465339010       -4.6384197676        1.7325011435
 O          6.0823268926       -3.1201244000       -1.9987977119
 H          6.7368306520       -2.5166993921       -1.6009345834
 H          5.8860163868       -3.7610528805       -1.2689354048
 O          8.8276627931        4.9729178008        0.5014871038
 H          9.5511045829        4.6217668253        1.0354424248
 H          8.3338538995        4.1885172222        0.1677941089
 O         -7.6628209757       -5.4350874427       -1.2521090682
 H         -7.2612175905       -4.9444340850       -1.9899576631
 H         -6.9988283755       -6.0839656092       -0.9747022463
 O          4.2042908173       -1.6548862476        5.1413448134
 H          4.3973731278       -1.8621455262        4.2060737125
 H          3.3790332091       -1.1418124794        5.1255827203
 O         -6.4890134751        1.6569357170        2.3491332439
 H         -5.6542454487        2.1167028100        2.5934426675
 H         -6.4756494725        1.5662872026        1.3845959445
 O        -12.1676324307       -0.3097113414        2.6176878763
 H        -11.7890574894       -1.1989064939        2.6548329784
 H        -11.6037814750        0.2446474699        3.1732197006
 O          0.1586208627       -6.9301812557        3.3366097767
 H          0.0640283088       -6.7654309219        4.2785439353
 H          0.0953190456       -6.0461502893        2.9059782562
 O          7.9235369819       -6.2848878484       -1.4311740000
 H          7.7999725068       -6.0379175523       -2.3588565968
 H          7.0515265903       -6.5776837301       -1.1245188306
 O        -11.4591530529        0.1583860076        0.0899695139
 H        -11.5192465592       -0.7122294668       -0.3329079028
 H        -11.8740258364        0.0498264711        0.9768055308
 O         -4.9287919161        1.5728653574       -6.0327242299
 H         -3.9731391252        1.7458334655       -6.1684636588
 H         -5.3074698838        2.4404023052       -5.8162153684
 O          6.7202355184        0.9603849778       -5.4915496038
 H          7.0196028325        0.2964740021       -6.1133168964
 H          5.8886368014        0.6104502576       -5.1065640772
 O         -3.6262814696        5.0344193464        1.5948303458
 H         -4.2951564992        5.6567791092        1.2587343361
 H         -2.9423314371        4.9857418491        0.8962681058
 O         -2.3643040751       -4.2959210842       -5.6613674167
 H         -1.5117480649       -3.9056593893       -5.4098663092
 H         -2.5002136571       -5.0973991838       -5.1262601473
 O         10.9161958516        1.9555806199       -0.1755359757
 H         10.8838842062        2.5166141744        0.6162693536
 H         10.7196215867        2.5549140859       -0.9160644800
