  189
       -320.70771547
 O          0.4130802412        0.9109577647       -2.9797893013
 H          0.5928210469        1.4713834785       -3.7474727328
 H          0.9823193274        0.1232634097       -3.1135280100
 O          0.4904345373        3.6254302436        2.9997935952
 H          0.5674272426        2.7741670512        3.4425934282
 H          1.3877830096        3.9849666864        2.9544827498
 O          4.6399124710       -0.0511805033       -3.2798152733
 H          4.8834178314       -0.3313513466       -2.3807785075
 H          4.4859350701        0.9073743163       -3.2260431039
 O          3.6156371646        1.2048762940        0.6414101702
 H          4.3611003123        1.8327153815        0.5362409232
 H          2.9217285837        1.4952849929        0.0267701154
 O          5.9492024764       -1.9679483146        2.9535227155
 H          5.2840829332       -1.7542421469        3.6224199784
 H          6.5145485911       -1.1845385796        2.8593966885
 O          3.8301823492       -1.0350623640        4.5035798445
 H          3.8112526109       -0.0996096985        4.2248952076
 H          3.1385697699       -1.1521579023        5.1643309997
 O          1.0925233323        0.9023283677        3.9394891897
 H          1.0846946715        0.1106671483        4.5397419410
 H          2.0185659336        1.1803616600        3.8883782990
 O         -4.9471816985       -0.2227122591        1.7958069891
 H         -5.8254927553        0.1280505741        2.0024101123
 H         -4.7256156125        0.1297423144        0.9097101350
 O          1.0433638271       -1.2381147112        5.4690979689
 H          0.9842981282       -2.0493340306        4.9222754724
 H          0.1544940688       -1.1494425349        5.8514704513
 O          0.3845812115        4.6407466429       -0.7782652686
 H          0.2447666434        5.5714615262       -0.9672146757
 H         -0.3025928664        4.4130002820       -0.0963047931
 O         -3.1469863044        2.3765284431        1.8513146619
 H         -4.0863666142        2.6180117143        1.9072174035
 H         -2.8957149325        2.0242373869        2.7139400353
 O          2.1966981305       -1.0200199566       -3.2172106014
 H          2.0922250838       -1.7967833088       -3.7883298732
 H          3.1146723138       -0.6799192145       -3.3529366551
 O         -2.6513094524       -0.5064898985       -2.4612878996
 H         -1.7540897307       -0.2818622106       -2.7217872439
 H         -3.1775069568       -0.5349554252       -3.2940037747
 O         -0.4767977442       -2.4024320272        0.8624844936
 H         -0.0525389131       -2.4212523736       -0.0140457381
 H         -1.4288117018       -2.2973301629        0.6628762407
 O         -0.6183271502       -1.7834912954       -4.1697750532
 H         -0.8755920004       -0.9272394836       -4.5863867369
 H          0.0422470954       -2.1988369191       -4.7316887355
 O         -5.1527285662       -2.7130535548        0.7859258993
 H         -5.1498692084       -1.9191820314        1.3557509063
 H         -5.7370744732       -2.4770865480        0.0422468068
 O         -2.7570027415       -3.5492545703       -3.8640308715
 H         -2.0656060470       -2.8793603904       -4.0063347518
 H         -2.4516107325       -4.1082902162       -3.1373263447
 O         -1.7794394917       -4.5278495456       -1.4576257762
 H         -1.4529575447       -5.0279056341       -0.6814165213
 H         -2.3564524597       -3.8350424025       -1.0606429149
 O         -2.3132167522       -0.7513118576        2.2241534443
 H         -3.2666190889       -0.6536178874        2.0884719437
 H         -2.0846946182       -0.0720678830        2.8855405774
 O         -1.5882197305        0.5070249211       -5.1267973335
 H         -2.4714208388        0.1906353974       -5.3600928814
 H         -1.7439921642        1.2486620675       -4.5140095372
 O         -3.2511509305        4.3785596774       -1.3449808967
 H         -2.6124290483        4.4383643661       -0.6286777059
 H         -2.8380668421        3.8702601651       -2.0601455432
 O          2.8755499929       -3.6343743405        0.2440548563
 H          2.6784417245       -4.0289718241       -0.6262503953
 H          3.8450366032       -3.5741095886        0.3129157156
 O          1.9654861034       -4.4792897498       -2.1949378822
 H          1.5110992182       -5.3189251197       -2.1052031125
 H          1.2760650974       -3.7724342774       -2.0188595851
 O          1.8348063310        2.2367884658       -1.1901790723
 H          1.3705635649        3.0739245299       -1.0721988011
 H          1.2683370355        1.6959564368       -1.7995141658
 O          6.0908898860        2.3958068275        3.1279481459
 H          6.7093086249        1.6494880223        3.0733963117
 H          6.0322046860        2.7418070038        2.2205970873
 O         -1.7031709030       -1.0999629394        5.8198007604
 H         -2.2283873275       -1.3538370758        6.5779846838
 H         -1.8592719057       -1.8002422243        5.1228513622
 O         -5.4863357440        2.9950672232       -0.8422538755
 H         -5.6829883747        3.1479915924        0.0954011618
 H         -4.7377869410        3.5973447540       -1.0447299953
 O          0.6674181590       -3.1955236820        3.6553617960
 H          1.1162723912       -2.5947412148        3.0244687372
 H          0.9740039562       -4.0842487749        3.3767555145
 O          0.1053038428       -2.7332321507       -1.7569818795
 H         -0.6186532066       -3.4120049403       -1.7058326148
 H         -0.0829009407       -2.2247520547       -2.5669301096
 O         -3.2418093629       -4.5673745450        2.0827074568
 H         -2.9525381479       -4.0272874628        2.8364171958
 H         -3.9784380228       -4.1010017117        1.6718968884
 O         -2.8234846188       -2.3410239688       -0.4188889172
 H         -2.8989929065       -1.7092275318       -1.1532249422
 H         -3.7054500106       -2.4660043579       -0.0029412554
 O         -1.3668237246        4.3165183497        1.1351524652
 H         -2.0626507479        3.6697323873        1.3576129573
 H         -0.7343823572        4.2381952024        1.8710317709
 O          1.8419241358       -3.3155089623       -4.6801724152
 H          2.4439456108       -3.6383807086       -5.3505951129
 H          1.9711495268       -3.8697629480       -3.8852294501
 O         -7.6100451792        0.8927266378       -0.7490951640
 H         -7.0195609506        1.5771388439       -1.0845014284
 H         -7.2608657441        0.0372020594       -1.0615524401
 O          2.2559498471       -0.9865031955       -0.5077654523
 H          2.1316150741       -1.0026932911       -1.4732207295
 H          2.3763106074       -1.9087740401       -0.2389109514
 O          2.9750694477        5.0260788582        0.2132658363
 H          3.0724843255        4.6690791285        1.1113850177
 H          2.0581312242        4.8678085775       -0.0557246552
 O         -1.9760898257       -2.8031541354        3.8400399126
 H         -2.1023188422       -2.1140456169        3.1442871567
 H         -1.0405755389       -3.0811878480        3.7495189613
 O         -5.8079348712        3.1146268217        1.9132193177
 H         -6.4241992178        2.3529907143        1.9874348731
 H         -6.1951910616        3.8436276708        2.3979472032
 O          1.5970504538       -5.2522432016        2.2292582581
 H          2.0803652907       -4.7705179463        1.5422201844
 H          0.7498132074       -5.5025429694        1.8233050469
 O          5.7850157273        2.7878812123        0.4340809869
 H          6.4497365942        2.1648307760        0.0968744026
 H          5.6319941003        3.4592298007       -0.2561131520
 O         -0.8417554870       -5.1085523103        0.9789799066
 H         -0.6119854164       -4.1608412554        1.0656955330
 H         -1.7095085281       -5.1745658448        1.4218462938
 O          2.4166812650       -1.7206135012        2.2988006935
 H          2.7248249021       -2.4299412887        1.7271175787
 H          3.0496200395       -1.6346768029        3.0328200950
 O         -7.4154205157        0.9803227543        1.8475077143
 H         -8.2692571671        0.8069905339        2.2435960321
 H         -7.5478070119        0.9250569343        0.8564229165
 O         -2.1955379003        2.4982058837       -3.2373196459
 H         -1.9483082825        2.0882783162       -2.3897263212
 H         -1.4749746801        3.1320144818       -3.4563861331
 O         -6.1491938628       -1.3611471248       -1.3575862044
 H         -5.4384528270       -0.7040463245       -1.1943190773
 H         -5.9099387541       -1.8177620564       -2.1800731835
 O          5.4833881321       -3.0592374752        0.6244977154
 H          6.1771646414       -3.7070876340        0.5004906110
 H          5.6167622484       -2.6837668702        1.5344882081
 O         -4.1614700146       -0.4022731233       -4.6695002782
 H         -4.6542965837        0.3814945133       -4.3789595890
 H         -4.7187155126       -1.1754431155       -4.4800098037
 O          7.6094556069        0.2042993502        2.4263424631
 H          7.5725874013        0.3469978966        1.4576331075
 H          8.5300814141        0.0837448668        2.6617145851
 O         -4.3877821192        0.5579379968       -0.7100201999
 H         -4.7505940351        1.4512371313       -0.8845221970
 H         -3.6770940927        0.3956227069       -1.3569075503
 O          1.8327258553        2.6357894253       -4.6581045987
 H          2.6604059809        2.6271801522       -4.1324839785
 H          2.0777694436        2.5907071456       -5.5815525033
 O          3.2051708611        4.0474436395        2.7884276971
 H          3.8623225336        4.5424491979        3.2791997905
 H          3.3713256464        3.1003391559        2.9811413343
 O         -0.1529538998        4.1439059824       -3.5052580199
 H          0.5752505270        3.7194465022       -3.9862450841
 H          0.1327432502        4.2587644823       -2.5882566746
 O          4.9854648350        4.5918082401       -1.4203336824
 H          5.4033844975        5.4304132071       -1.6164295498
 H          4.2039403521        4.7955728929       -0.8453477845
 O          3.8676440475        2.5558702866       -2.8827360967
 H          4.3851346354        3.3082834735       -2.5585250242
 H          3.1821618276        2.4013600627       -2.1932467643
 O         -4.8967287744        1.8578327296       -3.3940561325
 H         -3.9886932450        2.1967794672       -3.4285514413
 H         -5.4190438596        2.5150173354       -2.9301138710
 O         -1.7320932628        1.0566510293        4.1416734178
 H         -0.7763924820        1.1983174679        4.1463007864
 H         -1.8849022415        0.4211729985        4.8649799982
 O          3.6933906056        1.4119932376        3.2810716662
 H          4.6365941160        1.7183432952        3.3604836896
 H          3.5941908505        1.1608260766        2.3328188794
 O          5.1148615266       -0.6711644011       -0.6452122999
 H          4.3654352053       -0.2243244952       -0.1943975604
 H          5.1831750722       -1.5623182472       -0.2618246856
 O          7.3307194828        0.6312260207       -0.2378697168
 H          6.4959624158        0.1116718911       -0.4147529529
 H          7.9288240053        0.4459879974       -0.9622160092
 O         -5.2308707192       -2.6675194568       -3.6165146730
 H         -5.7856908487       -3.3239806051       -4.0374349673
 H         -4.3052373596       -3.0221610723       -3.6592611668
 O         -1.6825409965        1.8588776852       -0.7191390537
 H         -2.2985400063        1.8740737355        0.0205715736
 H         -0.9280610269        1.3288973751       -0.3713349015
 O          0.1130328393        0.4122167874        0.5573531051
 H          0.9372031740       -0.0164617951        0.2757487033
 H         -0.3497852971       -0.2553450757        1.0769590860
 O         -8.3674440090       -2.1932667206        0.2737063281
 H         -7.8573385595       -2.8121838025        0.8001269223
 H         -7.7836478109       -1.8915264905       -0.4322524672
