  249
       -422.56508113
 O          3.5988107570        3.8917539178        0.1871598124
 H          3.5795204622        4.4836173005       -0.6017678395
 H          4.5283936416        3.7185516316        0.3838605464
 O          1.1587565717       -0.6568925415       -3.2238099434
 H          0.5334073595       -0.5621944487       -3.9490372239
 H          1.4576631177        0.2539326115       -3.0178727072
 O          5.1065945502       -3.0285155023       -3.9875722282
 H          4.6002649901       -2.9921385468       -4.8040418751
 H          4.4324348769       -2.8590362236       -3.2850968501
 O         -6.5216610952        2.6435355804        4.0362288919
 H         -6.6342553947        1.7246634684        3.7428548079
 H         -6.7016362995        3.1936624991        3.2627842627
 O         -4.3726779521       -0.4392662935        5.0773438461
 H         -5.1093400241       -0.2671802027        4.4365661505
 H         -4.7776781200       -0.5108864485        5.9419094083
 O         -1.3634443048        3.1139854852        4.1162845130
 H         -0.7844034532        2.9291111129        4.8761235647
 H         -2.2806573755        3.0398520854        4.4287565072
 O         -2.8426153042       -1.7392624641        0.6064405504
 H         -1.9133275777       -1.8242500668        0.8666564213
 H         -3.3117661017       -1.8853306770        1.4473468178
 O          0.4909781396        3.4078248423       -0.5122468485
 H          1.0200908996        3.4924675472        0.3065575862
 H         -0.3913165371        3.7361018009       -0.2600778915
 O          1.9722461870        1.6075553889       -5.4958295275
 H          1.9563800547        2.5335037182       -5.1899053744
 H          2.7731058972        1.2123726907       -5.1116157793
 O          2.0030235012        4.1684991594       -4.5970753762
 H          2.1052489053        4.8802138606       -5.2271102522
 H          1.4330975129        4.5093284755       -3.8777268485
 O          1.3544258400       -0.3469711646        2.9471673172
 H          2.0301439792       -0.5305804524        2.2465578884
 H          1.7079002488       -0.7772089197        3.7495640092
 O         -0.8596498610       -4.2828958386        0.8179640401
 H         -0.7056195633       -3.4721300930        1.3482472941
 H          0.0299943618       -4.6087314400        0.6129479381
 O         -7.1537896333        1.1047872267        0.3772151014
 H         -7.2110175873        1.3518147836       -0.5705814794
 H         -6.7002673215        0.2528903949        0.3893650574
 O          6.7347538184       -3.8194266019       -1.8643930227
 H          7.0069696773       -2.9051383483       -1.7036873599
 H          6.3608561831       -3.8183976223       -2.7550947519
 O          1.7451080898       -4.1607765340        0.2073045327
 H          1.9813562062       -3.9246282108        1.1294308857
 H          2.5434533853       -4.5491536237       -0.1685281727
 O         -8.6781660492       -1.1424660310       -2.5966124164
 H         -8.0777934415       -1.4960107787       -3.2945344822
 H         -9.5697627994       -1.2603275536       -2.9276146814
 O         -3.1670212523       -4.9209027318       -2.3607526304
 H         -2.3640229059       -4.3673484893       -2.2329219189
 H         -2.9477481668       -5.7970889940       -2.0438090711
 O         -4.3484926907        0.2236969867       -0.9169266710
 H         -5.1612138935       -0.3004569283       -1.0178945634
 H         -4.2153093467        0.3063717375        0.0510712700
 O         -4.0228601951        0.6760652158        1.7037866704
 H         -4.0558858423        1.6638584098        1.6608811972
 H         -3.1724187679        0.5075269424        2.1542679113
 O          3.7007801854       -0.0705890706       -1.6932326997
 H          3.3861308719       -0.9953706036       -1.7812156064
 H          3.0460649590        0.4623322964       -1.1980369319
 O          2.7685574525       -1.9140355245       -5.0572846079
 H          2.2665245017       -1.6477427372       -4.2644071382
 H          2.1056441654       -2.2615458555       -5.6580293018
 O         -3.9240624490        2.3943471645        4.5035621279
 H         -3.8921752675        1.4505654764        4.7092174806
 H         -4.8832847052        2.6143021908        4.4708373992
 O          0.9732169926       -1.6781649569       -0.6277345142
 H          1.1264453565       -2.6341419051       -0.4834290939
 H          1.0288242754       -1.5116450994       -1.5830306523
 O          2.4765186276        1.4789741923        0.1316683722
 H          2.9386168244        1.1354234655        0.9122417344
 H          2.8488264160        2.3848921562        0.0235077301
 O         -4.4851239630       -3.0857947699       -0.9762870543
 H         -3.7841114019       -2.6420074438       -0.4397577328
 H         -4.0814314495       -3.8782004811       -1.3899507729
 O          1.0738486770       -3.7822065661       -2.9634258023
 H          0.2555543618       -3.6577929090       -2.4504539580
 H          0.8493112544       -3.5570273846       -3.8794800046
 O         -7.8081197471       -1.8378048308        2.0745252528
 H         -8.3845795982       -1.4118734456        1.3923237845
 H         -8.4021051297       -2.2136727780        2.7250148745
 O          1.5858307164        1.9142423649       -2.5414512573
 H          2.4719810430        2.2885610036       -2.7320832500
 H          1.2732387324        2.3773339401       -1.7484669013
 O          2.6981181302       -1.2721941497        5.1132113575
 H          2.7409345697       -2.2307018638        5.1807252473
 H          3.6000427937       -0.9613414782        4.9462491803
 O         -1.4991792107        0.8074488407        2.7451870216
 H         -1.4686152411        0.1235965507        3.4485154756
 H         -1.4153701270        1.6780565793        3.1831940600
 O         -2.2871685476        4.4015089492       -2.3532601569
 H         -3.1263593826        3.9163526070       -2.3465643537
 H         -1.6991133667        3.8684961856       -2.9176275936
 O          5.8015508124        3.2634549222        1.8711376080
 H          6.0215238964        3.9744419542        2.4718968053
 H          6.6402352409        2.7631506349        1.7104303372
 O          0.5358524028        2.4034735808        5.9510074155
 H          1.1898635314        2.3185409143        5.2080638150
 H          0.9176374511        2.9984033527        6.5958496794
 O         -6.5744715006        4.0118472715       -1.2731329397
 H         -5.7218563515        3.6470739908       -1.5713018040
 H         -7.2456476947        3.4589397621       -1.6833081669
 O          3.4276732305        5.3416762987       -2.0210232603
 H          3.6393574934        4.6037765098       -2.6158095357
 H          2.5064264610        5.5709081024       -2.1943063874
 O         -7.4636529550        1.3864427707       -2.2718932624
 H         -6.6827571688        1.2479246838       -2.8387833946
 H         -8.0379862996        0.6250122358       -2.4325037306
 O          4.1386879670        1.2538070569        2.3610548864
 H          3.4635702434        1.5799242417        2.9931961794
 H          4.7311967550        2.0212083272        2.1989528953
 O          5.6813671602       -2.6926745631        1.2910016713
 H          6.6323149943       -2.7865150371        1.1281109233
 H          5.4524237639       -1.7868945617        1.0087048339
 O          0.4898732068       -3.2833331914        4.5575278124
 H          0.1868033964       -2.6301359381        5.1911896258
 H         -0.3151764909       -3.7525424083        4.2545386480
 O          4.7508543754       -3.2967115473        3.7857676355
 H          4.9145228297       -2.3618022216        4.0065407258
 H          5.2131457739       -3.4060431147        2.9412188768
 O          5.4116671057       -0.1320539793        0.2874646933
 H          4.9456334886        0.2097854126        1.0640169968
 H          4.7286454791       -0.1843124333       -0.4309322948
 O          3.2791590182       -2.6375266133       -2.0818626475
 H          3.6742030173       -3.2532577430       -1.4231754252
 H          2.4753021264       -3.0889467470       -2.4274108463
 O          0.3142153382       -0.3325441664        6.2747612511
 H          1.2010791034       -0.6190184624        6.0132103517
 H          0.3378810499        0.6392086514        6.2858543566
 O          0.6470076197        5.2208296507       -2.4965712902
 H         -0.2696873071        5.4716909971       -2.6351517773
 H          0.6301007229        4.5600936424       -1.7718362865
 O         -3.9461499169        3.2892201870        1.8012365831
 H         -4.8973542042        3.5191415670        1.6395714364
 H         -3.8215498603        3.2881117428        2.7612548639
 O         -6.9331649455       -2.1390360342       -4.3521516079
 H         -7.0165222111       -3.0378767624       -4.6715538017
 H         -6.0155318904       -2.0443389410       -4.0172654560
 O         -6.5294952102       -1.3492259443       -0.7421088389
 H         -5.9846773544       -2.1430883279       -0.8481517299
 H         -7.2753156048       -1.4179932707       -1.3466584002
 O          4.0883723182        2.8174762201       -2.9019630829
 H          4.4368227782        2.3899377857       -3.6871348976
 H          4.7240221175        2.6460031340       -2.1755306488
 O         -1.9069820046        4.3085535832        0.2957409100
 H         -2.6965380836        3.9879304465        0.7672371440
 H         -2.1774975632        4.5190657305       -0.6212167407
 O         -1.2318195810       -3.2785967211       -1.5981371172
 H         -1.1521360741       -3.6425270989       -0.6814501276
 H         -1.4192535230       -2.3308628418       -1.5126671958
 O         -5.7069324213       -3.5562390279        1.5924852329
 H         -5.3735651165       -3.5173514023        0.6852974350
 H         -6.4819181749       -2.9726390541        1.6416647339
 O          7.4118021665       -1.0338919226       -1.3305248690
 H          7.1155519098       -0.9059745489       -2.2787491136
 H          6.6762143750       -0.7233384119       -0.7760273265
 O          1.5653774211        3.7424888008        1.9094193070
 H          0.8963806383        4.4321416913        2.1645762389
 H          2.3685569476        4.1618563163        1.5655810070
 O          6.5777757015       -0.7952694017       -3.7638820456
 H          6.1704698634       -1.6706046347       -3.9370595676
 H          5.8795684020       -0.1587850889       -3.9950005843
 O         -1.9027608089       -1.4409223207       -4.3876121473
 H         -1.7943397824       -1.1867335669       -3.4463729493
 H         -1.5708032414       -0.6785250856       -4.8872009443
 O          8.3723026091       -2.5086198038        0.7286211971
 H          8.7987657561       -3.3226867777        0.4565289485
 H          8.2132770330       -1.9907029071       -0.0833152126
 O          4.4657574151       -4.3279949628       -0.4329282167
 H          5.2600790318       -4.4595784657       -0.9806742324
 H          4.7962395016       -3.7964114002        0.3199926093
 O          2.9882759590       -1.1736262469        1.0854233484
 H          2.3515430896       -1.3155048559        0.3597360300
 H          2.9928522745       -2.0076824660        1.5866739856
 O          7.9647621745        1.7931977192        1.5917405268
 H          7.8336267219        0.9060345903        1.9615492536
 H          8.2466917274        1.6836415881        0.6698653031
 O          7.7912911195       -0.7325053151        2.8077024512
 H          8.0102632705       -1.3932108908        2.1303398332
 H          8.5075884072       -0.7430299717        3.4442570242
 O         -4.3790314732        2.6054647540       -2.1671766365
 H         -4.3406333359        1.8049783455       -1.6034985773
 H         -4.6405942422        2.2725886694       -3.0333031653
 O         -1.6111650410       -1.0597738784        4.6129583677
 H         -0.9573490959       -0.7976289508        5.2987777436
 H         -2.4927085114       -0.9319705544        4.9787854448
 O         -0.6957623542        2.7618021671       -3.8574824555
 H          0.1866871064        2.5846421766       -3.4875686968
 H         -0.8140266417        2.1149042564       -4.5610835467
 O         -1.7945224661       -4.3327717623        3.5503911995
 H         -1.6369341264       -4.6945586478        2.6705253672
 H         -2.5309823249       -3.7047201153        3.4516305917
 O         -4.4792446242       -1.7376109495       -3.3437169849
 H         -3.6279154639       -1.8350574504       -3.7987412464
 H         -4.4154854890       -2.2194432627       -2.4915141397
 O         -3.7718847132       -2.4724896180        3.0290392954
 H         -4.0777925915       -1.9182331689        3.7540053181
 H         -4.5434335118       -2.9540083945        2.6523214258
 O         -6.1370500657        0.0255353022        3.1866822661
 H         -6.7260695487       -0.6338422119        2.7780776146
 H         -5.4298788794        0.2338828861        2.5345012000
 O          2.0457689670        2.0458948535        3.8344123958
 H          1.8028955889        2.7300179662        3.1642974999
 H          1.6246850884        1.2110682407        3.5276050281
 O          5.2126845214       -0.6069071721        3.9970064510
 H          4.8004546969        0.0342712969        3.3825188187
 H          6.1367172956       -0.6545402482        3.7130819216
 O         -0.4965090510        5.1948204384        2.5074227161
 H         -0.8820774451        4.5691973858        3.1439411994
 H         -1.0332380498        5.1047786279        1.7035179253
 O         -5.3897956804        0.7425724263       -3.9557416900
 H         -4.9984226856       -0.0931997201       -3.6316333884
 H         -5.7544901133        0.5531865682       -4.8207897329
 O         -6.5122535129        3.5385494915        1.3683941609
 H         -6.7750427564        2.6228209194        1.1558126737
 H         -6.5979335354        3.9968212387        0.5087020103
 O         -0.3722283983        0.5166327720       -5.5697891871
 H         -0.5726857748        0.5086424057       -6.5056295411
 H          0.5538619432        0.8948433358       -5.5195964479
 O          8.5531671950        1.3959560816       -1.0909165657
 H          9.3522229541        1.5367745780       -1.5974386495
 H          8.2697626139        0.4679716978       -1.2417233409
 O         -9.3136098676       -0.5300028362        0.3252956506
 H         -9.2705374994       -0.7857349505       -0.6004326948
 H         -8.7646591750        0.2737370952        0.4104053474
 O          2.3694479207       -3.2778434588        2.6400590285
 H          1.6531131791       -3.3082076924        3.3028139515
 H          3.2059097873       -3.4541320274        3.1236393007
 O          0.0762058968       -2.9913291091       -5.4132877437
 H         -0.2890151475       -3.7145220886       -5.9222862572
 H         -0.6846453616       -2.5003537848       -5.0368953687
 O          4.1469927473        0.3551894632       -4.3138686108
 H          3.8290550317       -0.4613054743       -4.7331728484
 H          3.9435845831        0.2571298812       -3.3571704623
 O         -0.6154259759       -1.9547055322        2.1198773065
 H          0.1765607149       -1.4573203082        2.4048063302
 H         -1.1537478773       -2.0144723465        2.9212237469
 O          5.8943736148        2.3255708804       -0.9636919768
 H          5.7521195427        1.5221959397       -0.4384664747
 H          6.8378162944        2.3413472393       -1.1580764862
 O         -1.8491199017       -0.6984866726       -1.8164667959
 H         -2.7177694514       -0.4160507321       -1.4837877095
 H         -1.2215125745       -0.2156633337       -1.2276565562
 O         -0.5293418199        0.7090527838        0.0190779271
 H          0.4073675872        0.9282597538        0.0274380777
 H         -0.8109543200        0.6454627186        0.9406885864
 O         -7.0356419317       -4.0842577891       -2.0707785053
 H         -6.0881644225       -3.9325949735       -1.9953204746
 H         -7.2842444812       -4.6409738507       -1.3321958995
