91
 energy: -144.259725581682 gnorm: 0.000443766368 xtb: 6.5.1 (579679a)
H            0.58784387192546       -0.05967826874639       -1.88698249622481
C            1.04402728803586        0.15731374080584       -0.92675282612073
H            2.11831648756836        0.21402336578832       -1.04922819058414
H            0.69292312146164        1.12773125806485       -0.59336630421058
C            0.68582121755137       -0.93023177535150        0.08096465817041
H            1.15948402703279       -0.69420708441287        1.03541197764175
C           -0.82472779784451       -0.95380284416898        0.31403009943560
H           -1.12303666700200       -1.92729949611156        0.70635291189010
H           -1.33974585535882       -0.79889995242840       -0.63913497226851
C            1.17961174250934       -2.29798299521205       -0.37892655104048
H            0.96268188967945       -3.04954318896557        0.37412172740152
H            2.25272588914783       -2.27902633388756       -0.54237410861183
H            0.69134220126611       -2.58793177922874       -1.30418614691005
N           -1.19695229575159        0.05142633342329        1.30749096561766
H           -0.73298583847577        0.92856120391638        1.10873167579033
H           -2.19478066480489        0.21441047912854        1.29001101554671
O           -2.20818994580132        2.29720399608226       -0.87977371278485
H           -1.42781222941289        2.45496662690613       -0.31760764266467
H           -2.92507898347552        2.07381474834839       -0.25894433077505
O           -2.16835813081973        0.60279986877783       -2.94025597727805
H           -3.02026836900817        0.77256275789281       -3.34388984133466
H           -2.12177220187786        1.18219534038026       -2.14400697491326
O           -1.19474899338635       -1.99093561217060       -3.06212944994989
H           -1.52553536145605       -1.07761849980552       -3.08507078490718
H           -1.67444971374077       -2.41214298517698       -2.33378787083071
O           -0.40473827509532        1.71187863134683        4.21033370247830
H           -0.54549354785151        0.75052918820447        4.22023455826199
H            0.41759205313689        1.85981511970371        3.72524536919756
O           -3.05985814910649       -2.81115996060504       -1.02663917661166
H           -3.46922122338987       -2.12516157910424       -0.45077487993734
H           -3.78845258553139       -3.27326174828056       -1.44379575912249
O            1.40295664161191       -1.72231118468928       -3.75912326631537
H            1.46116147685099       -2.18922917354844       -4.59328828027836
H            0.47929253682685       -1.84491090917089       -3.44627000633394
O            3.82976863507319       -1.01899542399141       -2.44388130980417
H            3.00294391666156       -1.45914313685266       -2.69557801014116
H            3.84781502226073       -0.21137626821808       -2.96581630594866
O            0.16240915923138       -4.70658549101698        1.91873601035353
H           -0.78813553036499       -4.54835164992401        1.70024199062019
H            0.43689945022623       -5.45822653676820        1.39361237704252
O            2.09834764477085        0.96986048293083       -4.05738581747327
H            1.25669458242174        1.42748733048729       -4.29351920444512
H            1.84101726656260        0.04077131434199       -3.93050535806796
O            3.06716173398031        2.59249704170529       -2.26600888697301
H            3.67750463156223        3.09367489767307       -2.80848282789256
H            2.64387437894458        1.93249794717998       -2.88385224411858
O            1.81298953918606        1.88821442564005        2.31589040925236
H            2.54782639737495        2.18343222311102        1.74394032332989
H            2.08283315382058        0.97779482581749        2.55108243768509
O           -2.18923944982460        2.91786868135909        2.60833136553894
H           -1.51324947673147        3.17707544648008        1.96265843538129
H           -1.67366595586913        2.47796377646000        3.32088515641951
O           -3.92106118768670        1.62962899516604        1.16432858392091
H           -3.28801636671524        2.08332531571715        1.79914019483550
H           -4.75728069495033        2.08431404741675        1.26867209491927
O           -0.29450517406582        2.05440341055944       -4.42283055538682
H           -0.45843251914877        2.89328804165811       -3.94861325868188
H           -0.90549475817144        1.42117873016162       -4.01392113454815
O           -0.10529488960722        2.92299283343672        0.77479368862389
H            0.38871080464773        3.50964876510185        0.17511368571260
H            0.57061296253683        2.54790415903508        1.38559258970526
O            3.77654181584450        2.14748517191084        0.43715638642157
H            3.51144044166169        2.29551625819577       -0.48145725476491
H            4.02649723887410        1.21066334654069        0.48070469045601
O           -0.85640986479973       -0.99074623504255        3.67605492393048
H           -0.89517379430507       -0.56069516264213        2.76289005466266
H           -0.08792978158852       -1.58472130792812        3.64544242169290
O            1.35745680019224        4.29393344048770       -1.07736622098789
H            1.93613290154433        3.62893139193173       -1.51465241682179
H            1.93721900274473        4.96187356983095       -0.70932257640549
O           -3.10434733129256       -2.22425983294509        3.07688825619331
H           -3.60041665370294       -2.38631053734021        3.87902772094142
H           -2.25932842328825       -1.77368227665723        3.35590982471732
O            1.26469578755982       -2.75692222589304        3.39831174757983
H            0.89718994883274       -3.44049660951598        2.80171007356590
H            1.52240785834913       -3.21040925140727        4.20169503737465
O            2.88086760838709       -0.57883840466837        2.67296867792203
H            3.35835052552768       -0.73211711606420        1.84681985580059
H            2.37449781367653       -1.38016811656159        2.87108374156174
O            4.38297300078171       -0.60021330227319        0.19291615885830
H            4.15782967548483       -0.79131194548091       -0.74275321792174
H            5.30643081393934       -0.83050810640482        0.29999054441086
O           -2.36946232959707       -4.21786599008067        1.29123044250312
H           -2.51063787768138       -3.79855988041329        0.42495745397389
H           -2.68522990053604       -3.57686786036323        1.95142361740672
O           -0.93920479840261        4.07600314932788       -2.71438371566190
H           -1.53931826544042        3.59883740635776       -2.12535214455815
H           -0.16325381369471        4.29468916324371       -2.18028527891993
O           -4.21904373449283       -1.16414970659994        0.75360116648844
H           -4.19469752186514       -0.20019366382900        0.84174074440152
H           -3.89426681196819       -1.52136330683927        1.59870940135540
