  189
       -320.74168198
 O         -1.8429825336       -2.0892673410       -1.5038093979
 H         -1.0788971266       -2.6236197199       -1.7727940008
 H         -1.4768096745       -1.4151347170       -0.8600083561
 O          1.1772166672        2.5299484605       -2.2734345740
 H          0.3289460633        2.0317855985       -2.2380463642
 H          1.5150842215        2.3108181113       -3.1735060671
 O          8.4900456326       -0.3413707049        0.1214467768
 H          8.1183744919        0.3526881802        0.6814250902
 H          8.6035033530       -1.1013647391        0.7013445139
 O          0.1869266048       -0.8293227394       -4.2966253544
 H         -0.2664538354       -0.3027173803       -3.6083224121
 H         -0.3625491426       -1.6121432217       -4.4619816312
 O         -0.5676032757       -5.2362265054       -0.0049040567
 H         -1.4007092760       -4.8043435305        0.2540802724
 H          0.0482806881       -5.1309255204        0.7339396935
 O          1.2337550028       -4.4617820037        2.0399700481
 H          1.5862319753       -4.7390574310        2.8889389504
 H          1.9543138083       -3.9496127790        1.6173412438
 O         -2.7692467850       -3.5919727746        0.4862949133
 H         -3.5874071970       -3.9462783849        0.1024093260
 H         -2.4183524968       -3.0130198912       -0.2396057340
 O          3.2716288593       -3.0091245647        0.9435915881
 H          4.2195278174       -3.3040071139        1.0688813342
 H          3.0902663619       -3.1972232800        0.0139674168
 O          5.9827814967       -0.6203904080       -0.9309736894
 H          5.7813805366        0.2406636297       -1.3441363070
 H          6.9127909917       -0.5627363324       -0.6438577514
 O         -0.7781876034       -3.4154939684       -4.5330211388
 H         -0.2337823292       -3.8459850173       -5.1924064557
 H         -0.3964222988       -3.6553935351       -3.6618201068
 O         -4.8177384461       -0.9585340851       -1.1887515425
 H         -4.6268233593       -1.8828617645       -0.9687175224
 H         -4.0015692825       -0.4369781045       -1.0553720452
 O         -2.2109818556        1.8682884735       -4.8299375113
 H         -3.1034718856        1.4460964516       -4.9464529220
 H         -1.7821608983        1.8670782917       -5.6849753247
 O         -0.0000965274        2.3552311991        0.8891653928
 H         -0.7069612325        2.6302454118        0.2803724626
 H          0.5389250528        3.1665464429        1.0217276921
 O         -0.0351098145       -0.6985457226        3.5938624019
 H         -0.4151463031       -1.5459389910        3.3068439635
 H         -0.7644252935       -0.1999355013        4.0106301375
 O         -2.4252385494        0.9181060501        1.7370934179
 H         -2.9331834434        1.6242795781        2.1747064748
 H         -2.9342963960        0.0950063599        1.8364737551
 O          1.7197189386        0.8708326489        2.3075156513
 H          1.1554919145        1.3028980576        1.6426900046
 H          1.1208708379        0.2815211320        2.8110773867
 O         -5.9290726155        0.3780847072        1.0617239770
 H         -5.2199161056       -0.2943136244        1.0988706930
 H         -5.9771208018        0.7519132915        1.9581434118
 O         -0.9484284828        0.9724867906       -2.6119494020
 H         -1.6501074057        0.9054646010       -1.9242379913
 H         -1.3882368623        1.3512544324       -3.3939857760
 O          1.7368092350        3.0325333063        3.9003465392
 H          1.9604264775        3.7949248463        3.3605219275
 H          1.8668105269        2.2482442406        3.3199659954
 O         -5.1114068074        2.3757222522       -0.5607371805
 H         -5.5838732257        2.3912200510       -1.4051257555
 H         -5.4835071304        1.6481760255       -0.0195255268
 O         -4.7913623785       -3.7721074783       -1.2500713893
 H         -4.3372156555       -3.7887368277       -2.1050870037
 H         -5.7390936279       -3.6454403090       -1.4651301938
 O         -0.9230656243        2.8494086134        3.4466904557
 H         -0.0205520463        3.0325263341        3.7769176259
 H         -0.7906122633        2.5454553323        2.5250295355
 O          3.1066904723        1.9010687729       -0.4970836236
 H          2.3745845598        2.1748927183       -1.0899310286
 H          3.0474611173        0.9382918274       -0.4071378844
 O          1.4933137746        4.5624576151        1.2327402069
 H          2.4449622292        4.3624457058        1.2435292833
 H          1.2935889547        4.9378805275        0.3637540171
 O          6.3995109310        0.9121946492        1.5630312160
 H          5.5921451970        0.4753416653        1.2303486970
 H          6.0977537071        1.3555576364        2.4013699202
 O          5.7887987070       -3.6176874893        1.0178660829
 H          5.9752809918       -3.5480368322        0.0711598830
 H          6.3326792712       -2.9368395659        1.4660679587
 O          7.1775537542       -1.6717268516        2.3261887613
 H          6.9108790890       -0.7787210022        2.0415413329
 H          6.7602705448       -1.7655272149        3.1920968519
 O          4.0265891490        3.5284403646        1.4075305885
 H          3.6542909847        2.8255468891        0.8377181396
 H          4.8838188618        3.7299599366        1.0023120723
 O          4.0145104239       -0.3517188529        1.6068556115
 H          3.2041206505        0.1359694991        1.8537937614
 H          3.7399959299       -1.1939907659        1.2135063734
 O         -7.1759221695       -2.9166963983       -2.1283590705
 H         -7.4320462324       -2.2076333147       -1.5179504538
 H         -6.7688739152       -2.4677086264       -2.8843807466
 O         -3.8531079228        4.4055110971        0.7631981026
 H         -2.9896397882        4.2884513897        0.3227430685
 H         -4.4477871768        3.8136590122        0.2731892484
 O          3.2691728356       -3.0000661852        3.8908846670
 H          4.0748034629       -2.4891571101        4.0946378477
 H          3.1641061001       -2.9059109700        2.9385945188
 O         -1.0352337589       -3.0105396458        2.6056753618
 H         -1.7285208844       -3.3452204679        2.0230371146
 H         -0.2451178550       -3.5550542284        2.4451824361
 O          5.4067465144        1.8733731965       -1.8671335435
 H          4.5531582510        1.9854502612       -1.3924961790
 H          6.0162787576        2.4604480388       -1.4014432424
 O         -7.5956678864        0.4314864427       -3.0927178185
 H         -7.7290373767        0.0843101426       -2.1912161312
 H         -7.0401770545       -0.2225245621       -3.5391855798
 O         -3.6298851730        3.0479222820        2.9740234811
 H         -3.7498038016        3.6398549086        2.1821790210
 H         -2.7688173216        3.2754815005        3.3481428247
 O         -7.7968615828       -0.6533136069       -0.5861336167
 H         -8.5578268648       -0.6398227793       -0.0058292788
 H         -7.0312452378       -0.3400426461       -0.0575295933
 O          0.7055652407        4.9987652873       -1.4270779328
 H          0.8304618252        5.6111366749       -2.1511294101
 H          0.9303602658        4.1005886396       -1.7722067957
 O         -3.2213385832        3.5832655437       -2.9331337345
 H         -2.8108991447        3.0896970870       -3.6602825033
 H         -4.1284594291        3.2699164534       -2.8672613130
 O         -1.6809304944        3.7273229002       -0.7279435063
 H         -2.2252059936        3.6352537752       -1.5363607302
 H         -0.9792971061        4.3607125378       -0.9392449508
 O          1.8665411264        1.4830201322       -4.6100492849
 H          2.6902166915        1.0403708311       -4.3287434029
 H          1.2222037342        0.7708916420       -4.7159250546
 O          1.9243919916       -1.1142770098        5.4144785260
 H          1.1612407074       -0.9627203985        4.8274530838
 H          2.3770219221       -1.8858673478        5.0338204112
 O          6.5580282705        3.2357571388        0.2588385956
 H          6.5478903507        2.3615695111        0.7229255820
 H          7.3403804241        3.6949270472        0.5621352817
 O          5.1162695217       -1.0225171022        4.0212403630
 H          4.7422641420       -0.7130187589        3.1691937537
 H          4.8189653078       -0.3813998591        4.6750689057
 O          3.4580426355        1.0556349401        5.1474410257
 H          2.8469917475        1.7988819604        5.0925234921
 H          2.8940482998        0.2629476035        5.3111869238
 O          5.7447566121       -3.0805103418       -1.7514193510
 H          5.7867413949       -2.1214814711       -1.4905951035
 H          6.3554257668       -3.1920405412       -2.4793576617
 O          3.9140600997        0.1477099464       -3.4261523797
 H          4.6228071021        0.7627132029       -3.2010401203
 H          3.4845950589       -0.0732966677       -2.5766106314
 O         -6.0846021852        2.5394598903       -3.1346027258
 H         -6.6101097065        3.2872498496       -3.4197220493
 H         -6.7073162713        1.7540536077       -3.1060096833
 O         -2.8959528037        0.8912790991       -0.8523612578
 H         -3.5847902024        1.5832521046       -0.8932630928
 H         -2.5957877253        0.9072052834        0.0857981380
 O         -4.6556779471        0.9718094636       -4.9737951973
 H         -4.9000756010        0.0991499058       -4.6016308083
 H         -5.1349890143        1.6169092878       -4.4318618738
 O         -3.3575656219       -2.9718396738       -3.5535483721
 H         -2.8932571393       -2.4973543124       -2.8369993965
 H         -2.6512913697       -3.2757408552       -4.1358326911
 O         -3.9231267971       -1.3419146115        1.7103417177
 H         -3.5671527505       -2.1948891126        1.4192402348
 H         -4.0197690360       -1.3610018900        2.6876276173
 O          3.0603799333       -3.2576015614       -1.9000665472
 H          4.0266247937       -3.3985967553       -1.8798865949
 H          2.8813624195       -2.9322996010       -2.8205907457
 O         -4.1313274143       -0.7183866978        4.2761538937
 H         -4.7968501747       -0.0239371033        4.1634105261
 H         -3.3127142788       -0.2517930182        4.5072353874
 O         -5.6991571387        1.4983564837        3.5626814294
 H         -6.3430496107        2.0293968305        4.0303283994
 H         -4.9313889534        2.0882670631        3.3851823923
 O         -1.8645756773        0.8265824757        4.8394983774
 H         -1.5854151649        0.9929096804        5.7397658511
 H         -1.5827760842        1.6131101630        4.3000629299
 O          0.2582147575       -3.8206202474       -2.0755282405
 H          1.2205483066       -3.7799861111       -2.0083052449
 H         -0.0408785998       -4.4654489569       -1.3903334498
 O          2.5946849169       -2.1393551989       -4.2400027939
 H          1.7264755864       -1.6941850486       -4.2830725430
 H          3.2425326926       -1.4212571062       -4.2246160278
 O         -5.4544416071       -1.2742629475       -3.6931710343
 H         -5.2289555447       -1.0494051102       -2.7463499813
 H         -4.7926024642       -1.9508901199       -3.9183101522
 O          5.3020832338        2.2512437931        3.5055365001
 H          4.7108362608        1.8020089496        4.1333256669
 H          4.7297368584        2.7901900767        2.9320622951
 O         -0.4612125129       -0.8268725934        0.4320661998
 H         -0.4906852419       -1.4561197887        1.1635239074
 H         -0.7064605718        0.0295542365        0.8044464928
 O          2.3353825141       -0.6402182594       -1.2383792613
 H          2.5415702610       -1.5792419967       -1.3922105560
 H          1.3854293701       -0.5770016373       -1.1007982447
 O         -6.5255297770       -2.7810953127        1.5467836813
 H         -5.6940330689       -2.3054264965        1.6475106112
 H         -6.4376474829       -3.3408416887        0.7735078571
