  271
       -458.52667314
 H          0.2764657816        1.2544669675       -0.9434394626
 O         -2.1398429584        4.1621277366       -0.8885249484
 H         -1.7767319908        4.4589766059       -0.0198377542
 H         -1.3562508493        4.1588018332       -1.4661284508
 O         -0.4828606646        1.9911616717       -0.9644942257
 H         -0.9860021841        2.0222467869       -1.8369502899
 H         -1.1534168983        1.9358495752       -0.2009001892
 O         -0.4838280615       -0.1322641500       -2.9880208741
 H         -0.0470235973        0.6560053328       -3.3537690790
 H          0.2137636854       -0.8053202296       -2.8409779242
 O         -1.8131382159        2.2518749010       -3.1484535355
 H         -2.1736600486        3.1268072909       -3.4009255630
 H         -2.2061136344        1.6080651068       -3.7428709664
 O          1.9991395624        2.2379534186        3.7398693355
 H          2.7731975931        2.7351602921        3.4112831407
 H          1.4522616354        2.0070841393        2.9497664106
 O         -0.5340792672       -0.5622553794        0.7982292387
 H         -1.3326272851       -0.4381202147        0.2649164821
 H          0.2094183512       -0.6187777893        0.1798274474
 O          1.2214622428       -2.1883484655       -2.8533487700
 H          1.7040371601       -2.2507542644       -3.6992626280
 H          0.6712632414       -2.9882799889       -2.7771593936
 O          6.1388094123       -2.5961527074        0.3829394081
 H          6.2734084925       -2.6782747142       -0.5696760219
 H          5.3585525286       -3.1464688006        0.5778955198
 O          0.0587777127        5.3227667443        4.1122237899
 H          0.3718882713        4.8467893890        4.8957929833
 H          0.7972870401        5.3267711795        3.4683119168
 O         -1.4137223174        3.0911964017        3.4039967698
 H         -2.1544088969        3.4592758066        2.9119079048
 H         -0.8758943271        3.8588071259        3.6622860277
 O          1.3276197152       -6.8703434243       -1.1850545232
 H          1.7181491641       -6.9477356863       -0.3017123483
 H          0.3742320358       -6.7573669757       -1.0544571927
 O          3.3254788511       -1.6903149878       -1.2148959268
 H          2.5246703681       -1.8740767354       -1.7421475345
 H          3.0542408792       -1.6553606775       -0.2803847296
 O         -3.9165606318        2.0632097119       -1.4573803220
 H         -4.6199843332        2.0020145074       -0.7701949381
 H         -3.3392985414        2.8069361002       -1.2069828853
 O          1.4774759768        3.7178419675        0.2579954613
 H          0.9987732500        3.0290907371        0.7685528247
 H          2.1690735643        3.2451752523       -0.2417487047
 O         -0.2014546981       -2.5991331045        2.6608596039
 H         -1.0597804674       -3.0124568251        2.4843416155
 H         -0.2065686288       -1.8086325271        2.1000310353
 O         -3.6564522003       -1.3396153274       -3.3681586290
 H         -4.5427961866       -1.6475321660       -3.1402466787
 H         -3.3216700464       -0.9067588270       -2.5595303989
 O          3.2072207127        2.9507012650       -4.7030683911
 H          3.3595385332        2.8387232896       -5.6413229937
 H          3.9892329452        2.5472024437       -4.2475848618
 O         -0.6940439183        6.8859738297       -2.2302393226
 H         -0.3817585983        7.3057261415       -3.0328031700
 H         -0.4527814049        5.9454924774       -2.3037507372
 O         -3.1664948416        0.5694461397       -5.1253876579
 H         -3.4737434105        0.2893130839       -5.9881290192
 H         -3.3332987009       -0.1944323225       -4.5183358858
 O          1.6263807110        5.3292367986       -4.2852745218
 H          2.3316010204        4.6996662777       -4.4864943184
 H          1.3386240595        5.1117322325       -3.3840499797
 O          0.3231795826        4.3485753130       -2.0582952590
 H          0.4518043964        3.5314241647       -2.5889844847
 H          0.7130821224        4.1586647464       -1.1724702720
 O         -1.1360588558       -2.0590110651       -4.8568373173
 H         -1.9053474041       -2.6225478035       -4.7117806246
 H         -1.1587325430       -1.3944340054       -4.1470434694
 O         -2.0276952462       -2.8108461803       -0.9939835236
 H         -2.7111986001       -3.3480898850       -1.4417949870
 H         -2.2490275826       -1.8800777632       -1.1418525027
 O          1.3468204514        0.3092518907       -0.8794828534
 H          1.9729837559        0.6478366960       -0.1835554897
 H          1.8349914823        0.2641247367       -1.7308922860
 O         -0.9358485467       -0.0235027530        3.6385678129
 H          0.0190536876       -0.2425788424        3.6096257448
 H         -1.0566578898        0.7089449307        4.2751930877
 O          3.8050307707       -4.0277399446        0.8103792098
 H          3.4300101308       -4.1172895064       -0.0919360762
 H          3.3111345784       -3.2806920871        1.2062943866
 O          0.4352867949       -0.4351489533        6.7164722132
 H          1.2990993130       -0.0357322324        6.5310613878
 H          0.4821880118       -1.3236038001        6.3326011233
 O          0.2746990068        1.8744095241        1.7841311751
 H         -0.4350727094        2.2949313692        2.3230182722
 H         -0.0158697621        0.9664526851        1.5909040202
 O         -5.2415410056        4.7894399943       -0.0315987239
 H         -5.7156781637        4.0017062769       -0.3117138403
 H         -4.9320185692        5.2606176301       -0.8179417692
 O         -2.3435353232        1.9297747660        0.7696222805
 H         -2.6895461939        2.7688030873        1.0920202462
 H         -2.7378627993        1.2157514057        1.2982812071
 O         -3.5055498582        4.3020232327        1.9066529614
 H         -3.3020004284        5.1336978133        2.3533395846
 H         -4.1456277887        4.5202313482        1.1905834442
 O          2.5340179637        0.3041296617       -3.2943679730
 H          1.9666396205        0.1700544521       -4.0709929210
 H          3.3927320060       -0.0977719443       -3.5189776923
 O          2.4768928825       -6.3097468203        1.3229411067
 H          2.9852899694       -6.8761407629        1.9014903926
 H          2.9914984735       -5.4676033355        1.2341010853
 O         -0.3575860287       -4.4185271025       -2.6884928614
 H         -1.1134952496       -4.3217503841       -3.2933830281
 H         -0.7017667329       -4.9126874370       -1.9157910912
 O         -2.6117375546       -4.3385236165       -4.2319638223
 H         -3.2357767667       -4.3112397488       -3.4806189321
 H         -2.8928051048       -5.0444782334       -4.8129797701
 O          2.9605520533        2.5854003060       -1.6465433520
 H          2.4985672309        2.2431889998       -2.4197913633
 H          3.5793588297        1.8639855134       -1.3936239641
 O          3.6304259164       -4.4344539444       -3.8122193350
 H          2.9914659467       -5.1233468815       -4.0737622491
 H          3.4342524998       -3.6773570847       -4.3812218860
 O          0.9585661151       -0.2268276996       -5.5236374657
 H          0.2785585233       -0.9097605687       -5.4417923266
 H          0.4845927169        0.5148123369       -5.9525379932
 O          0.4990153500       -3.1694869550       -0.0315673333
 H          1.1344440399       -3.5728355964       -0.6515818484
 H         -0.3349968848       -3.0431147295       -0.5092125076
 O          5.3277082032        1.7539502965       -3.6115003832
 H          5.1572326082        1.3691621480       -2.7253185866
 H          5.4606418062        0.9761229393       -4.1652402341
 O         -4.5579618065        1.9857143038        2.8253434730
 H         -4.4151512751        1.8426046999        3.7704766497
 H         -4.2742137245        2.8962100851        2.6491218127
 O          5.2605977344        3.9895045921       -1.6492419967
 H          4.3444199236        3.6922444486       -1.8044719085
 H          5.7835716951        3.5599364785       -2.3315612758
 O          0.7521131410        2.3006117317       -3.7450781703
 H          1.6326210234        2.4008677351       -4.1511286423
 H          0.1424974541        2.7516180603       -4.3631507325
 O          4.1386230954        3.7223999246        3.0533821373
 H          4.5523168809        3.4519717725        2.2101132539
 H          3.5715222771        4.4840218859        2.8467440137
 O          0.7992101095        3.3317287309        5.8035409566
 H          1.2266695018        2.9343340923        5.0015398543
 H          1.3856867123        3.1591945605        6.5402756428
 O         -2.0957691863       -1.9345626924        5.0588078964
 H         -1.6394348063       -1.8641735565        5.8989189533
 H         -1.5879817049       -1.3509802088        4.4367484657
 O         -2.4521344047       -0.1367624148       -1.2418611262
 H         -2.9933692436        0.6934887377       -1.2674840515
 H         -1.7141949113       -0.0170217003       -1.8813613142
 O         -2.2313517543        6.4365305563        3.2137942112
 H         -1.4523513430        6.0989116443        3.6982802816
 H         -2.3910064845        7.3270461114        3.5245329941
 O          2.7920823405        0.6224781787        5.6748675122
 H          3.7305476895        0.7945489571        5.7907615045
 H          2.5054420275        1.2528479245        4.9753486609
 O          6.0514604866        0.0730462572        0.9137691745
 H          6.2543473613       -0.8656311522        0.7350177277
 H          5.4060399464        0.0397474701        1.6526688236
 O         -3.0634056546       -4.4418256626        4.7177047199
 H         -3.4803969458       -4.6048886620        5.5637789441
 H         -2.7335819986       -3.5184391319        4.7411096823
 O         -0.3871023694       -5.0337816298        4.2736692753
 H         -1.3360534036       -5.0130576691        4.4637662007
 H         -0.3284818229       -5.1066176132        3.3001804599
 O         -1.2851118892       -5.9567105860       -0.6622848067
 H         -2.2356199019       -6.0579478916       -0.5204709525
 H         -0.9167376618       -5.7150197061        0.2183956097
 O         -4.4318930274       -4.6236189578        2.2841201503
 H         -4.1254253574       -4.8712195700        3.1671901826
 H         -3.7443318374       -3.9690016190        1.9887382360
 O         -3.5634956790        6.0746820112       -1.9478303204
 H         -3.0130573607        6.8611363112       -1.9399667953
 H         -3.0342084206        5.3827064958       -1.4735959194
 O          2.5755396586       -2.3451532889       -5.2663377024
 H          1.9556048166       -2.9996461041       -5.6731995756
 H          2.2460883605       -1.4878076336       -5.5816159779
 O         -3.9072873959        1.5248678609        5.5015101925
 H         -2.9297086495        1.5321396288        5.5822752280
 H         -4.2445149242        2.0475061906        6.2281029584
 O         -3.0466495435       -0.3504968188        2.0648782742
 H         -3.7338407965       -0.3324541663        2.7604312587
 H         -2.2007520777       -0.2108159968        2.5433775282
 O         -5.1447019700       -0.9190522504        0.2759010804
 H         -4.2527273586       -0.6738610366        0.5545130658
 H         -5.5283694744       -1.4235848588        1.0376904056
 O         -2.9131969133        4.5189858402       -4.0650460400
 H         -3.7147754547        3.9750319402       -4.2246472048
 H         -3.1943276211        5.1951686514       -3.4186788083
 O          1.0252829827        6.7159645775       -0.0790415934
 H          1.7052586387        6.2113141166       -0.5321930037
 H          0.4005754292        7.0071694269       -0.7676439702
 O         -0.8328623049        5.1108998073        1.1621373345
 H         -1.3250207474        5.6879259173        1.7556244696
 H         -0.1244403796        5.6480287649        0.7688087479
 O         -0.5336127711        4.0478890753       -5.3481109548
 H         -1.3718497922        4.3958325233       -5.0042613192
 H          0.1686575132        4.6945102511       -5.1434478794
 O          5.4472790792       -2.7941620861       -2.3777833383
 H          5.1581738397       -3.5945208320       -2.8292670428
 H          4.6649063479       -2.4693885713       -1.8816300647
 O          2.3732567285       -1.7643821381        1.2885154155
 H          1.5534577540       -2.1881618384        0.9831002278
 H          2.1830978757       -1.3867250606        2.1660578589
 O          4.3702125430       -2.6094088213        3.6352377004
 H          5.0206143267       -2.9894941393        3.0413684885
 H          3.5352154825       -3.0903658141        3.4654261165
 O          2.8811746608        1.2779637996        0.9967412384
 H          3.6620812645        1.8301382455        0.8231708218
 H          3.1593311542        0.6532554843        1.6832933903
 O          1.3789329220       -5.9609457894       -3.9989143529
 H          0.7755055127       -5.4142868896       -3.4445301394
 H          1.5076266571       -6.7722437766       -3.5024231032
 O         -2.6164263567       -2.9329739175        1.5788836168
 H         -2.8257694129       -1.9918790515        1.7632794751
 H         -2.3574809447       -2.9740304193        0.6337373200
 O         -5.8292585841       -2.2240506221       -1.8990226738
 H         -5.5617955766       -1.7125525699       -1.0942932593
 H         -6.7857128275       -2.2192621916       -1.9147971349
 O         -4.0313636236       -6.0506889818        0.0703999588
 H         -4.5410559098       -6.8596086007        0.1099378964
 H         -4.1990827458       -5.5709153500        0.9187164592
 O         -4.7664408232        2.6051415374       -3.9946564707
 H         -4.5814309179        2.3907172626       -3.0593232468
 H         -4.3602531975        1.8932689907       -4.5073634980
 O         -0.0210346689       -5.2504818914        1.5613816026
 H          0.1605085446       -4.3695930614        1.1571084641
 H          0.8399835034       -5.7059934190        1.5514648596
 O          1.5882717624       -0.9293979175        3.7542795623
 H          1.2859201011       -1.7286254146        4.2200206417
 H          2.2030946132       -0.4781567217        4.3527117394
 O          4.7997998530       -0.9167348246       -4.2209275970
 H          4.3369301836       -1.4852953434       -4.8449713635
 H          5.2134246970       -1.5184834051       -3.5669716335
 O         -1.2311560178        1.4732877906        5.8335668452
 H         -0.7080957794        0.7860229851        6.2947212273
 H         -0.6688723489        2.2665154449        5.8025614672
 O          0.7274475376       -2.9127371569        5.4906104014
 H          0.2333160191       -3.6154872305        5.0027292419
 H          1.4853777377       -3.3437890634        5.8868577147
 O          5.1675973832        2.7836485163        0.7483733025
 H          5.8206180628        2.0746128170        0.7755363842
 H          5.3121552637        3.2891806788       -0.0818153570
 O         -5.9488683724       -2.2885253858        2.3650890739
 H         -5.5879589485       -1.8217735345        3.1338691576
 H         -5.5704908271       -3.1839519210        2.3778708035
 O          0.6405247058       -3.9724648476       -5.9417153672
 H          0.7246291765       -4.7893376342       -5.4359126017
 H         -0.0839241277       -3.4494137220       -5.5630319189
 O         -0.7912340053        1.5543402955       -6.4282780478
 H         -0.7163569066        2.5085713639       -6.2828764175
 H         -1.5913571306        1.2684177301       -5.9685259136
 O         -4.0593042146       -4.2576330122       -1.9713066789
 H         -4.1673089872       -4.9232150253       -1.2679310841
 H         -4.8030462680       -3.6290598075       -1.9167906776
 O          5.1727606343        1.8335533914        4.7585541493
 H          4.8358501229        2.5984260637        4.2574389346
 H          6.1222961842        1.9418830315        4.8143860297
 O          2.0882226665       -3.9760381455        3.1339951522
 H          1.2846347689       -3.4529197914        2.9288709497
 H          1.7919294540       -4.7111926377        3.6709881387
 O         -4.4842143797       -0.8915524300        4.2873719750
 H         -3.7009069329       -1.3468085520        4.6454953149
 H         -4.5380406633       -0.0581467042        4.7755552072
 O         -5.7776427480        1.7523800672        0.3842035491
 H         -5.8310417283        0.7869384025        0.2899594648
 H         -5.4681547315        1.8866940260        1.2958473699
 O          2.4163595108       -4.4224687707       -1.4340837457
 H          2.9070117148       -4.3414251676       -2.2766250509
 H          2.0674295470       -5.3362240885       -1.4108117436
 O          4.2735061554       -0.0418552529        2.9225542314
 H          4.5997327459        0.5218333225        3.6402185352
 H          4.2919923299       -0.9717473587        3.2363840295
 O          4.6725556151        0.6080737451       -1.2692579592
 H          4.1815020444       -0.2315668788       -1.3716718952
 H          5.2582607132        0.4577384197       -0.4918249553
 O          2.0788113989        5.3534506218        2.2707983644
 H          1.8268915813        4.7220489540        1.5519041556
 H          2.0196423304        6.2226498174        1.8673308986
