  136
       -229.31464760
 H          0.3641174601        1.0552749024        0.8096299321
 O         -0.3200828266       -3.1711049969       -3.4645150969
 H          0.4667119253       -2.5784884125       -3.3043798351
 H         -0.1133640154       -3.7168977791       -4.2228060979
 O          1.1398710639        1.4881663068        0.2696042729
 H          0.9724547143        1.3293469601       -0.7259770797
 H          2.0202717972        0.9947977291        0.4439966782
 O          0.6153952191       -1.3089910609       -0.2984947996
 H          0.9565113301       -1.2943337831        0.6131791480
 H          0.2916609509       -2.2122925233       -0.4472158151
 O          2.3174340128        1.1969665904        3.1664489066
 H          3.2540992591        0.9515709611        3.1948097244
 H          2.2654867437        2.0683625878        2.7245551946
 O          0.2736517247        4.5159001199       -2.1928925792
 H         -0.0583314965        3.8514028748       -1.5429443105
 H         -0.2883350111        5.2845655454       -2.0788037024
 O         -1.8963178930       -0.9610099325       -3.6628211436
 H         -1.4617790062       -1.8335000753       -3.5943692706
 H         -1.3863092365       -0.4942390485       -4.3501334680
 O          4.7249356836       -0.0110231356        2.6383997692
 H          5.6504870409        0.2245157503        2.7007729467
 H          4.6759408862       -0.9939932166        2.7985632286
 O         -0.6926262342        0.4745248891        1.6251820149
 H         -1.1370821808        1.0900150630        2.2518800010
 H         -1.3470332639       -0.1657633550        1.2953705458
 O          1.6313269398       -1.5301266604       -2.9632180857
 H          1.2246651108       -0.7197683910       -2.5974468052
 H          2.2463163013       -1.8097571534       -2.2563743801
 O         -1.6270562870        2.2326537655        3.3340005589
 H         -1.1436008785        2.9710864986        2.9056946967
 H         -1.0647937990        1.8970202384        4.0681245932
 O          1.2034625376       -4.9117951993        0.9592422601
 H          1.0375040654       -5.8539203484        0.9004481672
 H          0.6492127793       -4.4880044774        0.2562387382
 O          1.0111297927        1.0182673714       -2.2166364416
 H          0.4120576405        1.5517204128       -2.7817378001
 H          1.9359832244        1.2108258295       -2.4971691240
 O         -0.6210559631        2.4778003484       -3.7656413611
 H         -1.5717445054        2.3433643486       -3.5451853798
 H         -0.3828922926        3.3687489644       -3.4605448853
 O         -2.8266994035        4.4528504859       -1.5548325379
 H         -3.6728717316        4.2957005465       -1.9737384069
 H         -3.0107160389        4.7308044565       -0.6260908586
 O         -5.6223430798       -0.5111253405       -0.6273905398
 H         -6.4190959830       -0.2270781693       -1.0742856541
 H         -4.9933879859        0.2550143244       -0.6346896799
 O          0.0962495523        0.9019786726        4.8537636892
 H         -0.2400194905        0.0321408550        4.5848665351
 H          0.9258296030        1.0391153583        4.3719797221
 O         -3.6952724792       -1.8677942512        4.1245395421
 H         -4.1362729347       -1.7510775724        4.9661612793
 H         -4.1738173453       -1.3174845903        3.4704582087
 O         -4.6670527024       -0.4396919286        2.0464922274
 H         -3.8293611973       -0.7206212236        1.6012331329
 H         -5.3572410016       -0.6251975961        1.3988843910
 O          1.3562223025       -1.1356650112        2.3148842198
 H          0.4210942356       -1.0534813745        2.5762612640
 H          1.7456422759       -0.2636642442        2.5383708205
 O          2.1561576280       -2.6681671789        4.3221077867
 H          2.0841576513       -2.1320860354        5.1128516600
 H          1.8809077624       -2.0938002365        3.5612175785
 O         -0.3756734871       -3.7986826841       -0.8097513440
 H         -1.2919795361       -4.1081913198       -0.5911677374
 H         -0.3525404589       -3.7446817368       -1.7797878086
 O         -2.5811639866       -3.6745718744        2.3492003575
 H         -3.0979906490       -3.2986910691        3.0776895894
 H         -1.7402711304       -3.9706192075        2.7293703133
 O          2.3170740044        3.5987492175        1.9169105799
 H          2.7899275236        4.2953184718        2.3722818470
 H          2.8178217825        3.4188527989        1.0787942296
 O          3.3737334846        0.3472281132        0.3413645694
 H          3.3096349396       -0.5084583346       -0.1387034668
 H          3.8848063133        0.1897984195        1.1591642705
 O         -2.4740297036       -1.3997630339        0.9049634512
 H         -2.3877019471       -2.2366868687        1.4045814354
 H         -2.7186748036       -1.6423642992       -0.0095329471
 O         -1.0054320038        2.7181129062       -0.7368305412
 H         -1.7975812243        3.2096832882       -1.0369078962
 H         -1.1460069659        1.7751746642       -0.9606090950
 O         -0.9466942558       -1.4591967242        3.7869109786
 H         -1.9037553073       -1.4702248060        3.9383416114
 H         -0.6712071724       -2.3885834598        3.7278169642
 O          3.4550203130       -1.9280472370       -1.0412052057
 H          4.2556632010       -1.6063224929       -1.5014359263
 H          3.6882663823       -2.6756650963       -0.4690582295
 O         -3.7155188738        1.3140539442       -0.6094586296
 H         -2.9115758675        0.7583690118       -0.6086048307
 H         -3.7445296454        1.7561517699        0.2689278102
 O         -3.5810086883       -2.0954958519       -1.4581808449
 H         -4.4241125694       -1.6425944374       -1.2667400751
 H         -3.2439339177       -1.7545659281       -2.2925710823
 O         -3.1313445026        1.7429106549       -3.2465806805
 H         -3.4166020104        1.7419535035       -2.3157343275
 H         -3.0769134414        0.8199361623       -3.5120860255
 O          3.4489850012        1.4243061869       -3.1542301066
 H          3.4620750124        2.3852729420       -3.2558575391
 H          3.1868703085        1.0205408419       -4.0156010570
 O          4.5466099777       -2.5940947669        2.9821808677
 H          4.3148750330       -3.0498082602        2.1567772194
 H          3.8046734717       -2.7608337466        3.5896769828
 O          3.7521680280       -4.0130989594        0.7187008803
 H          2.8239875539       -4.2986312128        0.8550456030
 H          4.2815968954       -4.8066110246        0.6290198339
 O          3.7407117638        3.0468853988       -0.2217843527
 H          3.4679415355        3.3537241883       -1.1008042164
 H          3.8173643997        2.0825618128       -0.2651377640
 O          5.2690630812       -0.5181315322       -2.3985374654
 H          4.6842020683        0.2402967690       -2.5777615975
 H          5.7037026295       -0.7266335953       -3.2258642137
 O         -3.8978928106        2.1849503816        1.8964563045
 H         -4.3725828269        1.3725053233        2.1417543299
 H         -3.1352699574        2.2231420750        2.5031683876
 O          2.4049913273       -0.0248428803       -5.1009257992
 H          1.5111201021        0.1902062646       -5.4045872854
 H          2.2721578557       -0.7432272496       -4.4558385410
 O         -1.4005625508        0.1144134913       -1.2185560109
 H         -0.6588948646       -0.4081839850       -0.8324147200
 H         -1.5230654190       -0.2245457216       -2.1230414047
 O         -0.3561783988        0.4649296874       -5.4843419535
 H         -0.3973089097        1.2931801449       -4.9631254117
 H         -0.7183714466        0.6621511109       -6.3487435990
 O         -0.4183322855        3.8882566265        1.6381916349
 H         -0.5859940543        3.4013588912        0.8078695169
 H          0.5444008796        3.8614307973        1.7584347898
 O          2.8985445793        4.0794573478       -2.6743489928
 H          1.9519188954        4.2679939568       -2.5160396935
 H          3.3199141515        4.9195711772       -2.8575471954
 O         -2.8404372511       -4.5150980995       -0.2809864850
 H         -2.9601004896       -4.3784282836        0.6702670927
 H         -3.3162015165       -3.8043601369       -0.7355387358
 O          0.0086245126       -4.0370823820        3.3023667203
 H          0.7608808504       -3.8285400941        3.8802486579
 H          0.4218114542       -4.3072543839        2.4628700116
 O         -3.0817351077        4.7851289700        1.0642787174
 H         -2.1828474541        4.7226252799        1.4148795150
 H         -3.5616155154        4.0259921694        1.4205593186
