  99
       -167.94099641
 O          3.8327177043        3.2220842343        0.1666610481
 H          2.9086159920        3.4837669761       -0.0646966334
 H          4.2681582936        4.0251264944        0.4555860834
 O          4.8143516983        1.7036800634       -1.8770072904
 H          4.5262851187        2.3235857779       -1.1835781626
 H          5.0299691954        0.8698475647       -1.4219447531
 O         -2.2188773314        1.9535834009       -0.2508837473
 H         -2.1334998310        2.3124491837        0.6502260557
 H         -2.1014301267        0.9880255609       -0.1438185896
 O         -2.1894411603        2.4298778480        2.4120246175
 H         -2.4052514491        3.1795629716        2.9670107223
 H         -2.9608741049        1.8253857171        2.4247596366
 O         -4.3410219286       -2.9665792602        1.2805083917
 H         -5.0628239370       -3.5508422336        1.5141155051
 H         -4.7288540403       -2.1951786836        0.8178825356
 O         -0.1172838359       -4.0676685881        0.0409821829
 H          0.2607382826       -3.4932352066        0.7305894857
 H          0.4930370152       -4.0019388101       -0.7134472839
 O         -2.5565157667       -2.2087651994       -3.1465133458
 H         -2.7806377728       -2.9560258660       -3.7036561174
 H         -2.4951690195       -2.5558196375       -2.2232189621
 O          2.8828721509       -1.2308685199       -4.1568872432
 H          2.9800146237       -0.2663769620       -4.0909221405
 H          1.9347587880       -1.4033812984       -4.1420334580
 O         -0.8068056649        3.3283540511       -2.0459576227
 H         -1.3769710236        3.9408951939       -2.5114048909
 H         -1.3626741327        2.8697671392       -1.3756855316
 O         -2.3649175849       -3.0067182914       -0.6463386153
 H         -3.0458033636       -3.2621555550       -0.0052712169
 H         -1.5275350678       -3.4927360483       -0.3862833777
 O         -2.7772836570       -1.2837326870        2.8373067283
 H         -3.4413746135       -0.5876904269        2.9344277414
 H         -3.2468607298       -2.0590516835        2.4900293711
 O          0.1178896506       -1.5051787371       -3.3529134243
 H         -0.8334380737       -1.6981831144       -3.3794538637
 H          0.1948531681       -0.5675730930       -3.1011167286
 O         -4.4810424920       -0.3570319490       -2.6717720371
 H         -5.1374834375       -0.4969317486       -3.3561085548
 H         -3.7198565703       -0.9338197121       -2.8891143867
 O          2.9582736768        1.4881931693       -3.6760585945
 H          3.6876425501        1.5665641490       -2.9976277092
 H          3.1872022996        2.0921613455       -4.3829976668
 O          1.3294159259        3.9132725891       -0.3075115555
 H          0.6985551248        3.8179852446       -1.0337824872
 H          0.9361222183        3.4507823198        0.4546078033
 O          0.5275069966        2.2433046076        1.6556325176
 H         -0.3328080943        2.1319723179        2.0837956560
 H          1.1959502752        2.2984779928        2.3839408060
 O         -4.6553576945        2.1853595972       -1.4191067920
 H         -3.7873992168        2.2061574702       -0.9724439366
 H         -4.6141274544        1.4188566453       -2.0064027195
 O         -1.7952025186       -0.6324287205        0.3616742333
 H         -2.0294735590       -1.4711433744       -0.0983111356
 H         -2.0269433455       -0.7800922746        1.2999554376
 O          1.6945442504       -0.0488833126        4.9927154399
 H          2.5485971318       -0.3957856599        4.6645828699
 H          1.7253023499       -0.1075325245        5.9485238229
 O         -5.1362907547       -0.7448876015       -0.0247670431
 H         -5.8740388117       -0.1253679310        0.1012957789
 H         -4.8584550164       -0.6469483258       -0.9527341427
 O          4.0277165123       -2.3406966115       -1.9868633360
 H          3.2756950852       -2.9026155711       -1.7596168967
 H          3.7775580216       -1.9342673286       -2.8441145041
 O         -0.2627932641       -0.1492335149        3.0171277374
 H          0.3090140415       -0.1050209660        3.7978038967
 H         -1.1097311647       -0.5168488379        3.2960873767
 O         -6.4718869809        1.6009307984        0.4306074624
 H         -5.8510572398        1.9446132850       -0.2591962681
 H         -7.3069859922        2.0471159080        0.2917529234
 O          5.2366532720       -0.6033680022       -0.4392678911
 H          4.7730585528       -1.2869420571       -0.9897454091
 H          6.1628887422       -0.8499689085       -0.4507801832
 O          0.5550281327        1.0835877728       -2.5884384140
 H          0.0556980354        1.9200328336       -2.5905568720
 H          1.4286986831        1.2798417221       -2.9880514724
 O          4.2476788356        0.9562844433        1.6632477181
 H          4.6471694816        0.3663637346        1.0053685221
 H          4.1151729071        1.8010080563        1.1951136432
 O          1.4582371482       -3.5029979137       -2.1388655658
 H          1.6448182881       -4.1783976109       -2.7927405640
 H          0.9703591888       -2.7901072496       -2.6071799583
 O          2.3553827640        2.2209180399        3.5343867524
 H          2.0856877053        1.5305651587        4.1620862800
 H          3.1493018717        1.8936560545        3.0972569197
 O          4.1171797679       -0.5844818694        3.9455872137
 H          4.7293615229       -1.3186228894        3.8938814801
 H          4.2802739616       -0.0214750359        3.1700290625
 O         -4.3517444165        0.8467645564        2.0828159757
 H         -4.3383979685        0.2988757932        1.2756965239
 H         -5.1723527171        1.3478184935        1.9988148200
 O          1.2020800672       -1.9241795370        1.3390412814
 H          1.3902767576       -1.2929523818        0.6095617669
 H          0.7572508822       -1.3465212835        1.9822496420
 O          3.9737381204       -2.5250992608        1.3554813247
 H          3.0156324432       -2.3819050062        1.4322897805
 H          4.2443494690       -1.9188596881        0.6600972750
 O          1.6395546539        0.1819238604       -0.2614207519
 H          1.1366998775        0.3464118447       -1.0725702700
 H          1.3139304911        0.8312277817        0.3768797645
