  114
       -193.39965458
 O          1.1976734441        1.7404103311        4.4078560366
 H          1.5265003076        2.2865519580        5.1214706011
 H          0.5109604423        2.2720501431        3.9312350325
 O         -3.2246296702        2.9421069281       -0.9397024136
 H         -3.2079696512        2.9097057062       -1.9094907078
 H         -2.3230553625        2.6489800707       -0.6717166580
 O          2.4486909682        1.3437346512        1.9381017002
 H          2.1135443733        1.4437495575        2.8426073082
 H          2.0901011566        2.1048725801        1.4394815082
 O          5.1051840113        1.4340729443        2.1740799732
 H          4.1252517232        1.4610665815        2.0995134651
 H          5.4435553129        1.7460225573        1.3210031834
 O          1.1744768934        3.3533600751        0.6555377823
 H          0.7711015923        3.7561810133        1.4347437579
 H          0.4416195401        2.8414045803        0.2456539104
 O         -0.0384858896        2.2604179578       -3.1557556432
 H         -0.9390951164        2.4144203111       -3.4890266516
 H          0.2025279515        1.3622555261       -3.4481011882
 O         -1.3216116314       -2.6758585851        3.3266185948
 H         -0.5656822397       -2.0942869477        3.5360283817
 H         -1.4644173437       -3.2246960190        4.0988343642
 O          1.9628826761        3.8952171804       -1.9471299731
 H          1.7295171209        3.8679734341       -1.0039883429
 H          1.2501016347        3.4538858247       -2.4316936423
 O          0.3601373020       -0.4014128284       -3.6713251833
 H          1.2034714604       -0.8718151372       -3.7633279862
 H         -0.3350667400       -0.9992238048       -4.0387954264
 O         -3.0677582112       -0.2135256105       -2.6439591714
 H         -3.8931291890       -0.4173968867       -2.1729607880
 H         -2.3346447613       -0.3893666824       -2.0231246040
 O         -1.5796292585       -4.2702631029        0.9211023732
 H         -2.4267149787       -3.9581319954        0.5862155005
 H         -1.4328359222       -3.8211662592        1.7634918544
 O          2.8469640737       -1.8688803103        2.4701780717
 H          3.7986289130       -1.6378773480        2.4561931642
 H          2.7872151689       -2.8045985770        2.1948791466
 O         -3.7336011408       -2.6480482675       -0.2404384229
 H         -4.4742311786       -2.1751880695       -0.6398667683
 H         -3.3535815249       -2.0189991665        0.4018562903
 O          2.6013465911       -4.3734429739        1.4955164781
 H          1.9597497274       -4.7181589820        0.8322617200
 H          3.1728628583       -5.1088384935        1.7148084917
 O         -0.5260508236        2.9484669853        2.7995471695
 H         -0.5727032299        2.1240360512        2.2763372298
 H         -1.4549971627        3.1419371516        3.0334102501
 O         -2.7366904974       -1.0064455386        1.7034865464
 H         -2.4116662610       -1.6256756449        2.3807382675
 H         -3.4240495915       -0.4504615337        2.1164541112
 O         -4.5134515427        4.3869798094        1.0081220273
 H         -3.9608688097        4.0835972509        0.2667178032
 H         -4.4594232832        5.3429286245        1.0275453012
 O         -2.7625321695        2.2518181350       -3.5712596801
 H         -2.8883423903        1.3124030253       -3.2893341328
 H         -3.1955875895        2.3492463506       -4.4194041785
 O         -0.7574790812        2.0470357687       -0.6215487186
 H         -0.4584023076        2.1882386671       -1.5516078878
 H         -0.7837450943        1.0799341996       -0.5202167054
 O          2.7173556376       -1.7812955488       -3.4586639920
 H          3.5025861620       -1.9903307952       -3.9651911855
 H          2.9949075711       -1.1452218759       -2.7546927899
 O          0.7756989708       -5.1509376864       -0.3009130773
 H         -0.0938577034       -4.9502045882        0.0792794744
 H          0.7968650882       -4.7596399049       -1.1859278489
 O         -1.6672692277       -2.0023500903       -4.2526490740
 H         -1.7936616049       -2.7567605346       -3.6530557024
 H         -2.3581536427       -1.3779602123       -3.9880785043
 O          0.6852639422       -0.8736359602        3.7659755581
 H          1.5265428964       -1.2352712006        3.4255393982
 H          0.9128226419       -0.0688931315        4.2592773077
 O          5.5919043959       -0.7154383547       -0.5098778371
 H          5.5520019237       -1.0422226054        0.4053877135
 H          5.9793757783        0.1714243082       -0.4581029397
 O         -5.2637861264        1.6849296842        0.1842341245
 H         -5.8029651036        2.4528193654        0.3952671815
 H         -4.4509278237        2.0683344274       -0.2340623371
 O         -2.2927982404       -3.8202465552       -2.2825093103
 H         -2.8586335825       -3.4290174094       -1.5922096047
 H         -2.1116708001       -4.7207727781       -2.0110254894
 O         -3.1918084338        3.1180562869        3.1163500537
 H         -3.5989250828        2.2412475035        3.1064902930
 H         -3.6768632016        3.6403579960        2.4566589981
 O          4.0895623034        2.4612654926       -2.3292754469
 H          3.3080808880        3.0604138877       -2.1529312908
 H          4.3957163284        2.6792289148       -3.2103750562
 O         -4.6028697314        0.7147160606        2.5961331769
 H         -4.8696537655        1.0615707138        1.7134986811
 H         -5.4053843463        0.5294356872        3.0851882695
 O         -5.4182689159       -0.6264910650       -1.2629014769
 H         -6.2572700182       -0.6917336496       -1.7206904789
 H         -5.4526114332        0.1764690293       -0.7094646618
 O         -0.4763619283        0.4466255612        1.7331906872
 H         -0.0892777321        0.0215451205        2.5290509379
 H         -1.3495900335        0.0260225847        1.6124074301
 O          3.3038872414       -0.0172221272       -1.5529778287
 H          3.5118087209        0.8769852265       -1.8810187192
 H          4.1543349552       -0.3498820501       -1.1587729553
 O          0.8125988718       -3.7859812562       -2.8095196749
 H          0.2446479223       -3.9628479164       -3.5614486148
 H          1.5286739081       -3.2153180778       -3.1238625981
 O          5.4145180314       -1.1334250700        2.2097700280
 H          6.1176986027       -1.3947107306        2.8042873345
 H          5.3385669839       -0.1333496248        2.2754484819
 O          5.9797425920        2.0544288228       -0.4072092980
 H          6.6938667443        2.6805416822       -0.5305511233
 H          5.2886498781        2.2730572591       -1.0641002473
 O         -0.8482016176       -0.5878393630       -1.1122773143
 H         -0.3263920284       -0.6698664548       -1.9290158799
 H         -0.2366435879       -0.9340202262       -0.4281508825
 O          1.4428646385       -1.2001186991        0.1107608066
 H          2.0073261937       -0.6110726861       -0.4121802019
 H          1.7984523334       -1.1597343163        1.0098166393
 O          3.6117819443       -2.9698604672       -0.6584013104
 H          2.7765013617       -2.4836790694       -0.6865468592
 H          3.5752221288       -3.4201855288        0.1915963971
