  87
       -142.30923929
 H         -0.5698921631       -0.9170940933       -1.7021404933
 C         -0.5219986409       -0.2370472599       -0.8465584376
 H         -0.7423983081        0.7736352000       -1.1923513307
 C          0.8671745634       -0.2766388551       -0.2264779020
 H          1.6214646271       -0.2790065293       -1.0110309118
 H          0.9692135090       -1.1792722125        0.3754086220
 O         -1.4664227579       -0.6369012277        0.1353999949
 H         -2.3301448179       -0.1796233780       -0.0184476783
 N          1.0634108230        0.8969197248        0.6380134968
 H          0.2786300294        0.9907224728        1.3187041585
 H          1.0815655416        1.7638230117        0.0451752960
 H          1.9741453610        0.8052695050        1.1601704870
 O          3.4577051808        0.4550394076        1.7368878710
 H          3.2745914585       -0.4440877239        2.1279264190
 H          4.0568830898        0.3193756059        0.9868584700
 O          3.8846477007        2.5168378907       -1.5678842425
 H          4.5575058302        3.1988800489       -1.5825701250
 H          4.2734212888        1.7370568848       -1.1260889374
 O         -0.9922698265        1.9651394131        2.0844047699
 H         -0.5319787127        2.1732561460        2.9171746615
 H         -1.8904884712        1.6816855680        2.3289090654
 O         -3.5750643194        1.1685101884        2.5661919181
 H         -4.3028230715        1.6760499974        2.9262559684
 H         -3.7856770774        0.9837419149        1.6257252203
 O          0.4961901514        2.1518060191        4.3538080598
 H          0.3476399385        2.6910398961        5.1313904132
 H          1.4279920154        2.3061039046        4.0755433390
 O         -3.8168250735        0.5808954666       -0.0333574245
 H         -3.7733963019        1.2979942477       -0.6957707582
 H         -4.3131718139       -0.1727109396       -0.4070855276
 O         -0.7940933132       -3.5837239657       -2.4361513444
 H         -1.5206436971       -2.9365891318       -2.6423771186
 H         -0.9408682362       -4.3342244856       -3.0129876444
 O          0.2476074802        1.9501532848       -3.4391832597
 H          1.0981682020        1.4694973682       -3.5914581376
 H          0.1534572846        2.5588184665       -4.1744671574
 O          1.8398539399       -3.0903634485       -1.7187395681
 H          1.7912296872       -3.3127048626       -0.7723140053
 H          0.9478288007       -3.2224956842       -2.0784853210
 O          3.6322572394       -1.3689738253       -2.4710532209
 H          2.9305661607       -2.0094460226       -2.1782328686
 H          4.1837287179       -1.8585148673       -3.0842374056
 O         -1.3665488772        3.5965551034       -0.0777699488
 H         -1.2723545569        3.0857514541        0.7471796901
 H         -0.4769743007        3.6728318143       -0.4428919145
 O          1.3913812571       -3.6279523236        0.9367560560
 H          1.5735329844       -4.5145058504        1.2517574700
 H          0.4094431151       -3.5745251167        0.8074233609
 O         -3.2865282628        2.6684708440       -1.6340860763
 H         -2.5592668164        3.0499037353       -1.0780918255
 H         -3.8717932083        3.3954522357       -1.8489990665
 O          3.0474305867        2.4116118491        3.5928372413
 H          3.7186443873        2.3666227547        4.2753989445
 H          3.2730462741        1.7269147345        2.9367649609
 O          2.6806767306        0.9736623017       -3.5746897480
 H          2.9570759753        0.0877727521       -3.2880872736
 H          3.1749275953        1.5994144093       -3.0240729498
 O         -2.1880809661       -1.1946561997        2.7588923523
 H         -2.7676021460       -0.4484595485        2.9707834334
 H         -1.8446758347       -1.0051806533        1.8716398813
 O         -1.1398757131       -3.3776473873        0.2294432064
 H         -1.2779017520       -2.4123099908        0.2199096689
 H         -1.0697331344       -3.6267679254       -0.7127983199
 O         -2.7689023034       -1.9237231382       -2.8101325209
 H         -3.4665752149       -1.9074455616       -2.1350198098
 H         -2.6375161195       -1.0026162384       -3.0988596733
 O          1.1799915197        2.9539151225       -1.1072791986
 H          0.7877697053        2.6489049053       -1.9535172713
 H          2.1359841671        3.0100825833       -1.2609015949
 O          4.8543257275        0.1356685839       -0.6210818694
 H          5.7803865121       -0.1116943013       -0.6052594352
 H          4.4089976633       -0.4695928881       -1.2573627884
 O          0.4086888851       -0.4166020436        3.2117330090
 H         -0.4706337433       -0.8231918104        3.2859489879
 H          0.4241462660        0.3338410062        3.8184479053
 O         -3.6650888335       -3.0755019994        1.3194747144
 H         -3.3306079319       -2.5031357930        2.0300005140
 H         -2.8788261473       -3.5354062673        0.9875031159
 O          2.6348288872       -1.8233347161        2.6743862764
 H          2.3189771114       -2.4951472515        2.0506015646
 H          1.8264287549       -1.4226886032        3.0487995977
 O         -4.6748502145       -1.8327295504       -0.7754768316
 H         -4.3266834901       -2.3183229562        0.0202791397
 H         -5.5366010134       -2.2072752208       -0.9610246470
 O         -2.2891616009        0.7087963446       -3.3426552502
 H         -2.7441139827        1.4096094243       -2.8532819775
 H         -1.3900635132        1.0331837975       -3.4882431848
