  102
       -167.76555471
 H         -0.1040040188       -1.1517661960       -0.2997044563
 C          0.1132133865       -0.2045244937       -0.7928977043
 H         -0.0963704189       -0.3022612048       -1.8599318261
 C          1.5733173714        0.1553674863       -0.5688400606
 H          1.8135926070        1.0822095971       -1.0870573526
 H          2.2202465474       -0.6436171925       -0.9218440286
 O         -0.6734624807        0.8334089384       -0.2407490386
 H         -1.5157985264        0.4368405763        0.0898343836
 N          1.7639267904        0.3523424572        0.8749365801
 H          1.5104890304       -0.5310412161        1.3873313349
 H          1.1126593547        1.1063967605        1.1982438944
 H          2.7449795206        0.6561440953        1.0707583636
 O          0.7818821030       -2.6948865642       -2.4964822303
 H          1.0571406309       -2.9281152107       -1.5857062444
 H         -0.1840062081       -2.7734327123       -2.4735089262
 O         -4.3877174603       -2.9078053953        1.3660643215
 H         -5.0983701981       -3.4762369424        1.6644880902
 H         -4.7185196910       -2.4230736149        0.5907391187
 O         -2.9669105386       -0.1969347475       -2.3724927190
 H         -2.3793073334        0.1196510202       -3.0812541156
 H         -3.0263487206        0.5526315915       -1.7455470446
 O         -3.2742986666        2.0738527465       -0.8259524340
 H         -2.8997039462        2.0832416485        0.0888920585
 H         -2.7210793594        2.6740166556       -1.3411773594
 O          0.6593385853       -1.6945839314        2.2384394043
 H          0.3234819643       -2.4150606376        1.6893204136
 H         -0.1276679727       -1.1605084857        2.4940233554
 O          2.4954552705        3.6920862417        0.6757307427
 H          1.7016508316        3.3544032526        1.1394955930
 H          2.6105866083        4.6024517601        0.9506431979
 O         -1.0780925635        0.9568168731       -4.0070109731
 H         -1.3117350751        1.3787353581       -4.8342174805
 H         -0.9689606431        1.6934851041       -3.3355055777
 O          0.5872231362        1.4305767924        4.4222026465
 H          0.7178252532        1.8278873379        5.2829579319
 H          1.2670997161        0.7160209554        4.3399484374
 O          4.9351041600        0.8532764707       -1.3416329436
 H          5.0533175538       -0.1058398842       -1.4402524976
 H          4.2947573796        1.1156541903       -2.0232478980
 O          1.3214584885       -0.4190284700       -3.9936484556
 H          0.4695072216        0.0380451638       -4.1083970555
 H          1.1288921324       -1.2126925554       -3.4622327667
 O          3.0455433931        1.4608579423       -3.2680890921
 H          3.4561050605        1.7563975313       -4.0821002192
 H          2.4167602361        0.7402535810       -3.5185035925
 O         -1.5997180127       -2.8845627143        0.8422472114
 H         -2.4133134787       -3.2754693057        1.1820984890
 H         -1.6224166103       -2.9899055747       -0.1232722460
 O          4.1777224262        1.5408493105        1.0716799712
 H          4.5581982672        1.3206801575        0.1833950189
 H          3.8004946170        2.4311488150        0.9841036542
 O         -3.7171639663       -0.9406439193        3.3690765426
 H         -3.8979520540       -1.6404648392        2.7239465575
 H         -4.1885488425       -0.1531097387        3.0530301821
 O         -5.7654004143        1.3638540499       -0.2052985223
 H         -4.8898380714        1.6929565119       -0.5103562959
 H         -6.4273207801        1.9501587329       -0.5740627120
 O         -2.7668145671       -0.4500658441        0.6609257759
 H         -3.5639326025       -0.6946755775        0.1711452177
 H         -2.3134682985       -1.2839851632        0.8867504803
 O          1.6788863248        3.5387075292       -2.0101873281
 H          2.2362959345        2.8937913951       -2.4738633580
 H          2.0459485714        3.6396450429       -1.1184200849
 O         -1.9580010394       -2.6509211309       -1.9148335731
 H         -2.5679571253       -3.2252599173       -2.3792809839
 H         -2.2993627653       -1.7341629226       -2.0257631215
 O         -2.3823487232        2.1435595073        1.7098150627
 H         -3.2569477583        2.1632735335        2.1208734658
 H         -2.0226334417        1.2681145227        1.9738840030
 O          5.0208205024       -1.8879170704       -1.6302598011
 H          4.4050769999       -2.1515102926       -2.3553939981
 H          5.8447198953       -2.3463857660       -1.8000502543
 O          2.3092943896       -0.5473958343        4.1097808278
 H          1.8134741524       -1.1992633432        3.5920020727
 H          3.2028993790       -0.5260608527        3.7336006742
 O          3.3435283094       -2.5675904851       -3.5822793763
 H          2.4859559238       -2.8778068728       -3.2555360316
 H          3.1397908758       -1.8766349378       -4.2185320514
 O          4.7544858055       -0.4507998898        2.7835092959
 H          4.6868354846        0.3675119951        2.2547400719
 H          5.6001489225       -0.4291676787        3.2324369674
 O         -4.9969867732        1.4071132351        2.4436831840
 H         -5.7246123007        1.7020971169        2.9922757321
 H         -5.3348327524        1.3216945606        1.5324388948
 O         -1.2750308109       -0.0152193501        2.9416548419
 H         -2.1318876878       -0.4251806164        3.2127832088
 H         -0.8832994801        0.4223794547        3.7090935098
 O          0.4211268023        2.5082651746        1.9441627810
 H          0.4659980218        2.2312588671        2.8802744246
 H         -0.5206938487        2.5606756299        1.7233485988
 O          3.5759751150       -1.9166209431        0.7129732191
 H          4.1967086336       -1.9290804553       -0.0330147972
 H          4.0587516108       -1.5954307336        1.4864312004
 O         -5.0289429511       -1.2265447450       -0.7804472893
 H         -5.5204397785       -0.4134524141       -0.5769583412
 H         -4.5503172410       -1.0440295062       -1.6005610718
 O          1.4159145291       -3.3446402809        0.0413219847
 H          1.5874516871       -4.2672581197        0.2302751929
 H          2.1962018027       -2.8448291573        0.3583724306
 O         -0.8684208831        2.7342462088       -2.1100819906
 H         -0.0064638035        3.1970194266       -2.1565910626
 H         -0.7602889227        2.1014418053       -1.3654897696
