  279
       -473.55670586
 O          0.9531051316        2.5347202774        0.8899078708
 H          0.4135643430        2.8369570141        1.6438299205
 H          0.9974874965        3.2446842659        0.2444927562
 O          2.2947949463        5.4671122380       -1.5216397339
 H          2.9828220278        5.4249238192       -2.2277714321
 H          2.7637216336        5.5305453272       -0.6766869151
 O          1.7489102908       -0.1068338929        0.3066468815
 H          1.9102057512       -0.2768576421        1.2607725640
 H          1.2840377523        0.7395787479        0.2993460124
 O          0.8116426895       -2.4174418971       -0.8125417884
 H         -0.1280510562       -2.5296436939       -0.5849473808
 H          1.1321629245       -1.6068020488       -0.3744270442
 O          6.1030611843       -4.1387041507       -0.3656677616
 H          5.3273320617       -4.3812832126       -0.9029027140
 H          6.6518905135       -3.6106093129       -0.9572430219
 O          3.5611149787        1.2681455869       -1.0937533413
 H          2.8741302658        1.8854610970       -1.4219685700
 H          3.0705047626        0.6308472313       -0.5386042788
 O          4.0536120576        0.8328613923        5.9496350293
 H          4.5596266909        0.9177325858        6.7565396248
 H          4.7035894269        0.7992567870        5.2017983620
 O          3.8787898102       -1.7454336789       -1.2439520159
 H          3.1844494696       -1.2207299604       -1.6833059621
 H          3.6302060181       -1.8481426964       -0.3008915665
 O         -3.6612843952       -3.9889721492       -4.2118255426
 H         -2.7475625894       -4.3102262260       -4.2114456077
 H         -3.6602915724       -3.1866360103       -4.7637269078
 O         -3.2879172903        3.5102959852       -4.1572899782
 H         -3.2752200652        4.1803327291       -4.8398134968
 H         -3.8402526313        3.8755212339       -3.4187851428
 O          4.0624093471        4.8339764398       -3.3816411371
 H          4.8699720632        4.4550583697       -2.9922669271
 H          3.6436557929        4.1226028510       -3.8855007628
 O         -2.1655169186       -2.3331922283        4.4845802966
 H         -1.3028618202       -2.5708162296        4.8386110784
 H         -2.0103140222       -2.0979162951        3.5405897029
 O         -1.7638671904       -3.0786137567       -0.3347151498
 H         -2.4790956332       -2.7929103140       -0.9352062388
 H         -2.1878162265       -3.4056249054        0.4835931297
 O         -0.0399430970        3.4551801703        3.2672500072
 H         -0.9569271740        3.4086710851        3.6199544693
 H          0.5532742245        3.1722737424        3.9730823442
 O          6.6752987193        1.1096588677       -2.6055930358
 H          6.4937395848        2.0710146879       -2.4472183287
 H          5.9044347335        0.8275252025       -3.1456510098
 O         -1.2134845960       -1.7682611015       -3.2545178118
 H         -1.1649773303       -1.3005190759       -4.1279482693
 H         -2.1523384237       -1.8188720972       -2.9895214336
 O         -4.2574223098        0.9444606423       -4.3814983053
 H         -5.1829605505        1.0113948830       -4.1188588143
 H         -3.9274336781        1.8546631405       -4.4619077365
 O         -3.5890670925       -2.2455841130       -2.1074072967
 H         -4.3851219389       -1.7488722877       -1.8410731447
 H         -3.8728854618       -2.9205339121       -2.7466829470
 O         -0.9488756343       -0.3533305128       -5.4481784256
 H          0.0014596402       -0.3438701541       -5.6643184019
 H         -1.0854392210        0.5473690711       -5.0778382494
 O         -5.3944082726       -0.7582649911       -0.7689114311
 H         -5.5798878169        0.1958289333       -0.7683282159
 H         -6.2389456539       -1.2277003048       -0.6520028936
 O         -2.8540492960       -4.4674741333        1.6592758409
 H         -3.4023053263       -4.4325479011        2.4770033487
 H         -3.1854910191       -5.2050770954        1.1078148544
 O         -5.4346308101        2.0000415411       -1.0525120389
 H         -5.3240979550        2.3483522185       -0.1497711517
 H         -4.4844326127        1.7745526262       -1.3583694439
 O         -2.2058085486        5.5751848030        2.3678844990
 H         -1.3275053990        5.9650253418        2.4277114356
 H         -2.3860975369        5.1170481360        3.2000646706
 O          6.4941984604       -1.8436743419       -1.9995056270
 H          5.5844007774       -1.6744037985       -1.6844014226
 H          6.8595748550       -0.9899625470       -2.2452496366
 O         -1.9279472541        3.2683877451        0.9703552447
 H         -1.6169662621        3.3939231297        0.0474150135
 H         -1.9104858792        4.1430616438        1.4005821239
 O         -2.5376606662        3.4149978568        4.2382160408
 H         -3.1938757290        2.9062924209        3.7423868192
 H         -2.4272622102        2.8903815798        5.0644332609
 O         -4.6183410286        3.2845003858        1.1910924906
 H         -3.6547494582        3.3056706202        1.0090426552
 H         -4.7217424085        2.7886324697        2.0080200922
 O          2.6985719223        2.5279891407       -4.3936790746
 H          2.0939260655        2.1074937145       -5.0160245962
 H          3.3821180349        1.8481400335       -4.2051036920
 O         -6.7516239952        4.5814987933        0.0112267929
 H         -6.4254250048        4.7999755860       -0.8704792641
 H         -5.9622704817        4.3682057223        0.5353564733
 O         -1.6189865868        1.0918681965        2.5072536209
 H         -2.5657265936        1.0857175942        2.7730257257
 H         -1.5442511744        1.8712422368        1.9257610213
 O         -8.0657985560        2.3110936157        0.4833018458
 H         -7.5991206238        3.1343455182        0.1967553688
 H         -8.8412918664        2.6042894491        0.9616887205
 O         -5.6596289303       -3.9048011853        0.6098521886
 H         -5.2867708250       -4.3150895322       -0.1815996609
 H         -4.9835003438       -3.3012994860        0.9738025028
 O          2.5097531020       -5.8854262094        1.9013065749
 H          2.2422996076       -5.6031190709        1.0050516879
 H          1.7083689992       -5.8330143526        2.4291750966
 O          3.0842284991        2.3177287774        2.4758414726
 H          2.3615851648        2.4194519385        1.8247572481
 H          3.5412703355        1.4895982300        2.2255630472
 O          4.7123769243       -4.3938733784        2.1614587089
 H          5.2899163121       -4.5877157178        1.4132695928
 H          3.9785676223       -5.0434453916        2.1405427488
 O         -0.3143281394       -5.1930586295        1.8362538924
 H         -0.2732341229       -5.6779699459        1.0080153548
 H         -1.2623132089       -4.9354576516        1.9271075697
 O          4.3452097865        0.5272981251       -3.6393112409
 H          4.0841048547       -0.3374512764       -4.0192772957
 H          3.9746121350        0.5788018684       -2.7360475518
 O          8.7161848261        3.8091485685       -1.3249875311
 H          9.0932848646        3.1605735298       -1.9468550274
 H          8.6648400617        3.3403128422       -0.4788674367
 O          6.3699073861        2.8110799789        2.6352150873
 H          6.2318007975        2.0145998166        3.1740736991
 H          5.8243878457        3.5126470097        3.0303912982
 O         -5.9546631280       -1.6829614011       -3.5731637758
 H         -5.3835598482       -1.6746382772       -4.3447563957
 H         -6.2424370995       -0.7607158751       -3.4130106416
 O         -8.1290956146       -1.4202207581        2.2021619295
 H         -8.9947554622       -1.6889126182        2.5076370801
 H         -8.0053578640       -1.8159366044        1.3174441377
 O         -4.8092287800        4.4049671078       -2.1759905089
 H         -5.0859670387        3.5504829376       -1.7864171340
 H         -4.2014239622        4.8245000348       -1.5418001062
 O         -4.2087103693       -1.7705421377        1.4276966393
 H         -4.5251443893       -1.2438503884        0.6676135502
 H         -3.2458440204       -1.6927799630        1.5020667564
 O          3.6518810244       -1.8374237877       -4.7811060491
 H          4.4346741934       -2.4171479077       -4.6576676483
 H          2.9101508045       -2.3288360458       -4.4030757610
 O          1.6748427450       -4.9013270027       -0.4820169045
 H          0.8558926533       -5.2872306877       -0.8516162473
 H          1.4588047168       -3.9480645396       -0.3834799137
 O          1.9401579168       -0.1956472198        2.9058633070
 H          1.0902855110       -0.1005428395        3.3485279677
 H          2.4932944974       -0.7554696670        3.4826174391
 O         -4.1699097295        1.3029483535        3.1951996232
 H         -4.8831504123        0.9428663425        2.6267362389
 H         -4.1501931420        0.7082159862        3.9816717716
 O         -2.2656641420        1.5369121000        6.1132261233
 H         -1.4898194184        1.0480870798        5.7882697032
 H         -3.0069096183        0.9230147192        6.0305062362
 O          0.6234588744       -2.2059038016        4.7851072917
 H          1.5685080595       -2.1970899273        4.9971373518
 H          0.3190478475       -1.2863176375        4.8825487358
 O         -6.2362374943        0.6125156806        1.6365910907
 H         -6.8159285629       -0.0841032842        1.9658423377
 H         -6.8245991520        1.2750737420        1.2378822042
 O          5.7453475598        0.4702913097        3.9526972049
 H          6.1540469453       -0.3836304475        4.1301130109
 H          5.2117451614        0.3102922897        3.1240520172
 O          3.8380752873       -4.2969128797       -1.9423767994
 H          3.8567144234       -3.3375587127       -1.6961055367
 H          3.1617918807       -4.7041242458       -1.3673727261
 O         -0.9058601936        1.9714506580       -4.1354989705
 H         -0.7158972690        1.6340529900       -3.2455059766
 H         -1.6476664169        2.5868286524       -4.0601919443
 O         -7.4883608043       -3.6337786961       -2.6870876423
 H         -6.9216205264       -2.9110954297       -3.0505939926
 H         -8.1208590257       -3.8543919225       -3.3697139957
 O          4.8767286011        3.1096483529        0.2691538186
 H          4.4533060226        2.3180034333       -0.1406452426
 H          5.4107089097        2.8196084814        1.0252178444
 O          4.4619381959        0.1656473598        1.7055016505
 H          4.0731198374       -0.7284961064        1.6024529298
 H          5.1369027527        0.2751842137        1.0067747934
 O         -0.9533493987        3.5822024138       -1.4910636685
 H         -0.0900906902        3.2071098850       -1.7558529555
 H         -0.8162164905        4.5452922783       -1.4231218980
 O         -3.2978602466       -6.2677402726       -0.2877401456
 H         -3.9757975586       -5.9708689821       -0.9092775907
 H         -2.4444961364       -6.1616708244       -0.7376602421
 O         -0.8430955073       -5.3663917988       -1.3204363974
 H         -0.8845801566       -5.2006251784       -2.2806537240
 H         -1.1678247399       -4.5205886028       -0.9238266196
 O         -0.1708173972        0.4542076553        4.6588157805
 H         -0.6955080540        0.7662682066        3.8896380863
 H          0.5378784427        1.1177009973        4.8130588513
 O          3.2933918796       -1.5716954837        4.7646233494
 H          3.5020350644       -0.8248161305        5.3449059435
 H          4.1479618479       -1.8897410286        4.3990076894
 O         -7.5410036547       -2.3589325309       -0.2667335188
 H         -7.7845365111       -2.8079930420       -1.0928634187
 H         -6.8585261466       -2.9804656793        0.1303532175
 O          3.3594119054       -2.2568807700        1.3202118161
 H          2.4384205921       -2.4344872503        1.5930225557
 H          3.9015246217       -3.0002986272        1.6671261843
 O          1.9400365824       -0.4986515651       -2.7460352500
 H          1.6168276194       -1.3745551187       -2.9992418419
 H          1.2050261515       -0.0542403756       -2.2848292360
 O          6.6059450199       -1.9026726550        1.3235473217
 H          6.6496638889       -1.1399857500        0.7251145288
 H          6.4137053081       -2.6797531317        0.7814580293
 O         -3.5129284587       -1.4753645256       -5.3608737188
 H         -3.7867655785       -0.6008517797       -5.0255295081
 H         -2.6433303601       -1.3047359013       -5.7431077578
 O         -0.9095997154       -4.3479576212       -3.8393763500
 H         -0.9610713105       -3.3970452960       -3.5759027414
 H         -0.0268673600       -4.4429570114       -4.2060674372
 O          1.6262296076        2.9320476189       -1.9785219799
 H          1.8879562199        3.8665500215       -1.8122746722
 H          1.8582716089        2.7754542339       -2.9199197929
 O          1.6457404540       -3.2671713081       -3.2815469727
 H          1.1863710255       -3.0780573353       -2.4414907902
 H          2.4095348314       -3.8105734377       -3.0249976120
 O          3.2735532423        5.0870252429        1.0448008570
 H          3.7327909985        5.3807220378        1.8375988310
 H          3.8032956917        4.3161984446        0.7330766302
 O         -0.2975973612        6.0875211731       -0.7775780256
 H         -0.0508908000        5.9901960936        0.1625066836
 H          0.5502138240        6.1414106291       -1.2440205322
 O          0.6410723991        5.5741995176        1.7352975910
 H          1.5785612143        5.4780852509        1.4972609530
 H          0.4484007478        4.8337965301        2.3397808393
 O          0.8022505213       -2.7921730092        2.1253271328
 H          0.8037316205       -2.6709009479        3.0952701557
 H          0.4746157023       -3.7065093363        1.9745180837
 O         -3.1029533905        5.6253164786       -0.3858520963
 H         -3.1472614744        5.7677790464        0.5656235716
 H         -2.2547327951        5.9847694483       -0.6716324062
 O         -5.0935507782       -4.9191908378       -1.9944875510
 H         -6.0110554398       -4.6641869066       -2.1751700045
 H         -4.6180768718       -4.7759059054       -2.8258131310
 O          6.1658138363        3.6455523186       -2.0378878973
 H          7.0908962549        3.9115725800       -1.8308215272
 H          5.7160354961        3.5615938252       -1.1728720818
 O         -8.6365626070        0.1754396867       -1.2466462777
 H         -8.3548399893       -0.6338934356       -0.8046956853
 H         -8.4488824442        0.9116659687       -0.6417216973
 O         -5.7476119272       -1.9121177064        3.6171745212
 H         -6.6526563123       -1.8462741572        3.2884576867
 H         -5.1770147278       -1.8076582030        2.8254328877
 O         -4.0217599598       -0.4816301498        5.1518785200
 H         -3.2819440782       -1.1061995656        5.0112544247
 H         -4.7994934141       -0.9796878363        4.8427543677
 O         -4.1372916878       -4.1660987303        3.9608359805
 H         -4.8904654138       -3.5620765485        3.8757292791
 H         -3.4229929875       -3.6205304623        4.3318265437
 O         -6.8039594077        0.8530476810       -3.1094169982
 H         -6.3438047446        1.3690487444       -2.4257396331
 H         -7.6379390982        0.5993956889       -2.6693066617
 O          9.2910501355        1.7358603728       -3.0464478977
 H          9.3928534475        1.9332496607       -3.9777352104
 H          8.3888292251        1.3801329602       -2.9357721410
 O          5.6058568555       -3.4801296077       -3.9948614356
 H          6.0888971207       -2.9073195558       -3.3694827686
 H          5.0873445459       -4.0780401788       -3.4429586060
 O         -1.5481116713       -1.5220508751        2.0125702513
 H         -1.4346521797       -0.5641539450        2.1457001217
 H         -0.6615545328       -1.9330182659        1.9261715989
 O          6.4931938554        0.4973662980       -0.0102626322
 H          7.2141797665        1.0488753024        0.3327244448
 H          6.4680240140        0.6818782616       -0.9732642022
 O          5.6560968759       -2.3540952935        3.7634889877
 H          6.0064080954       -2.1015792312        2.8796408890
 H          5.4413832925       -3.2865068254        3.6376760536
 O          1.7241015627        0.0690633298       -5.4340936947
 H          2.4278114278       -0.4997700984       -5.7614224949
 H          1.7944770397        0.0077176336       -4.4609949283
 O          8.3843144292        2.2372868314        0.9874807835
 H          7.7325855483        2.6005847790        1.6190929449
 H          9.1474188804        1.9572080555        1.4924421817
 O          1.8846121906        2.1511937600        4.8275053932
 H          2.3122570088        2.1000179638        3.9358907723
 H          2.5302142017        1.7432464579        5.4211962184
 O          4.3400639858        4.3762373170        3.5850872341
 H          4.0294547071        4.4245732833        4.4888195753
 H          3.8277224975        3.6511186102        3.1569273052
 O         -3.0806398439        1.2363930625       -1.8957364087
 H         -2.4771553825        1.9756664977       -2.0313071135
 H         -3.3252551765        0.8723241073       -2.7644833774
 O         -0.4495756489        0.3120768604       -1.8045074347
 H         -1.0117572691        0.4328319675       -1.0378050196
 H         -0.7495246309       -0.5224781564       -2.2335017638
 O          9.0578285557       -1.1077318797       -0.3149591127
 H          8.6252668488       -1.4899850909       -1.0816845727
 H          8.5901144742       -1.4335140103        0.4598830787
