  86
       -142.08587044
 H          2.8130228291        3.1618112347        0.5226837002
 C          2.9147769743        2.0713191794        0.4737279384
 H          3.6072025862        1.8252564818       -0.3374768587
 C          1.5557640277        1.4389917496        0.1910890397
 H          1.6313036524        0.3529557078        0.2701704093
 H          1.2541429740        1.6896248910       -0.8229776139
 N          0.4984454814        1.8946055657        1.0883482631
 H          0.7810887885        1.7841323566        2.0573095961
 H          0.3222573019        2.8797869060        0.9184026555
 O          3.4838780497        1.6330743945        1.7016629764
 H          2.8702653090        0.9943511722        2.1380550996
 O         -1.5317949969        0.2505722197        0.6914631746
 H         -0.7462420832        0.8509721832        0.8042693706
 H         -1.4641324782       -0.1684869636       -0.1938040838
 O          5.5751565150        0.0680143269        1.3183937589
 H          4.8368172748        0.7113810382        1.4727132311
 H          6.3819412792        0.5046214099        1.5908667597
 O          4.7660122930       -1.1290778293       -1.0419845755
 H          4.1828373026       -0.4990673117       -1.5084094921
 H          5.1366352780       -0.6585008840       -0.2773048934
 O         -4.4737004208       -0.0058495878        2.7568722421
 H         -3.5498139678       -0.3542114533        2.8907928349
 H         -4.8812578892        0.0058112146        3.6229648712
 O          1.4873368374       -3.4573304640       -1.9549263573
 H          0.6618129263       -3.5932526015       -1.4656662185
 H          2.1869293580       -3.4000901080       -1.2864918708
 O          3.4939682013       -3.1210336224        0.0321640394
 H          3.9790810935       -2.3717885583       -0.4250012100
 H          4.0430253929       -3.8986445885       -0.0759155986
 O         -2.2964067982        1.5770686307       -2.9015624722
 H         -3.2497170998        1.4098186722       -2.8486499769
 H         -2.1641149540        2.3490971020       -2.2998247045
 O         -1.6564613845       -0.7272796196       -1.7693283066
 H         -1.7809180049        0.1398776523       -2.2259407017
 H         -2.5651871237       -1.1173890627       -1.7999587053
 O          0.1381509532        1.3287164521       -4.2567620869
 H         -0.7777682408        1.4528170889       -3.9681140832
 H          0.4042094949        0.4549715929       -3.9370704487
 O          4.1357946866       -1.9631478869        2.5704257133
 H          4.7823525757       -1.3291162396        2.2204240832
 H          3.8547683360       -2.4876068321        1.8050790683
 O         -0.8029776194       -3.0817090612       -0.3997892446
 H         -1.2056630613       -2.4167485114       -0.9710335185
 H         -1.4775789267       -3.3008979999        0.2837516464
 O          3.1219497682        0.5214823496       -2.4998599637
 H          2.2838927652       -0.0025942779       -2.5090195040
 H          3.4704302194        0.4515492517       -3.3910671745
 O          0.9311275561       -0.9570969561       -2.7486864801
 H          1.2056916574       -1.8900643017       -2.6039480656
 H          0.0660535299       -0.8879648200       -2.3144031366
 O          1.6805453324        2.9843874312       -2.8004281247
 H          2.3666738802        2.3335256143       -2.5988854580
 H          1.0740279178        2.5179108318       -3.4173375713
 O         -2.1961351110        3.5168869060       -1.1051293197
 H         -1.2753744264        3.7635266631       -0.8932197509
 H         -2.5933188384        3.1306832321       -0.3159741477
 O         -3.6871275662        1.7366182315        0.6442432342
 H         -4.1945609997        1.3822621269        1.3842765781
 H         -2.8649925262        1.1809703180        0.6398422975
 O          1.1563610774       -1.6884915368        0.7682371719
 H          0.3817509915       -2.1811724672        0.4238349921
 H          1.9218681817       -2.2413363496        0.5773408095
 O         -2.0583650647       -1.0319166463        2.9299007059
 H         -1.7649310261       -0.6112430830        2.0880994008
 H         -1.3936258957       -0.7641680640        3.5949695888
 O          2.0165798261       -0.3442429074        2.8821736249
 H          2.7931745908       -0.9295381274        3.0186795643
 H          1.5412727340       -0.7822372798        2.1416245631
 O         -0.0553418982       -0.3129186538        4.6025353607
 H          0.7295651967       -0.2637554613        4.0140619457
 H          0.1758204041       -0.9232016906        5.3036185431
 O         -4.8056418508        1.2681350220       -1.7361785964
 H         -5.4357399259        1.9680432044       -1.9055096903
 H         -4.4037483682        1.4657980348       -0.8534316519
 O         -2.6396657841       -3.3160657993        1.5171435125
 H         -3.4928271414       -2.9970308706        1.1897709132
 H         -2.3484744299       -2.6402837407        2.1539664278
 O          0.4086058973        4.2745173058       -0.8173374541
 H          0.8797226310        3.7952234583       -1.5396946935
 H          0.4363161896        5.1988964570       -1.0669734980
 O         -4.1933501400       -1.4384591988       -1.6959166104
 H         -4.5629228293       -0.5543709216       -1.8407800239
 H         -4.4614755947       -1.6893046067       -0.7981289440
 O         -5.0173487251       -1.9233828505        0.9168620400
 H         -5.8995260305       -2.2557004726        1.0827382982
 H         -4.8630196911       -1.1808919054        1.5391447796
