  102
       -167.76668553
 H          0.6334743356       -1.6828642770        1.4622381549
 C         -0.1870476096       -2.1096830642        0.8831155617
 H          0.1994026849       -2.4776978801       -0.0701393423
 C         -1.2557270339       -1.0349110849        0.6427298665
 H         -1.8836056940       -0.9455042137        1.5291976410
 H         -1.8830246690       -1.3170011846       -0.2004150269
 O         -0.6940548283       -3.1789019534        1.6527470356
 H         -1.3470250896       -3.6500453999        1.1031289893
 N         -0.6247383629        0.2597482070        0.3642267206
 H         -1.3304760381        0.9493516658        0.0290762633
 H          0.1382133553        0.1583088936       -0.3573430690
 H         -0.1461174646        0.6250359227        1.2169243007
 O          3.0274552152        2.7405797535       -2.5885140710
 H          2.0594924599        2.7332564246       -2.6485557786
 H          3.2375126416        3.1045497839       -1.7113952192
 O          3.1953911613        3.7195601171       -0.0221806248
 H          2.2563846650        3.4310663850        0.1089694159
 H          3.2429794864        4.6534042468        0.1812581253
 O         -2.3388371250        1.8325628746       -1.1066099731
 H         -3.2500954215        1.8252623066       -0.7559240010
 H         -2.1034550327        2.7635456027       -1.2459912231
 O         -1.3358613335        3.7593357941        1.4358720996
 H         -0.9890249763        3.7676395476        2.3399008117
 H         -1.9486754738        2.9864089607        1.4346647054
 O         -2.6109434504       -4.1039848253       -0.1253518245
 H         -3.3554853266       -3.5505217993        0.1868280379
 H         -2.9351645442       -5.0014367732       -0.2098925779
 O          3.1566278352       -2.8272913880        1.7407110351
 H          3.1493984002       -3.7675818832        1.9237610393
 H          2.8854420247       -2.7267140204        0.7991748715
 O         -0.5673016091        0.8712250800       -4.3885955735
 H          0.2582684138        0.3498963094       -4.2464758597
 H         -0.6097682130        1.0702273172       -5.3243540505
 O          1.5903231153       -0.0087860249       -1.0807740290
 H          1.9540325709       -0.9136520636       -0.9264371467
 H          2.1482044102        0.5778738696       -0.5270521010
 O          0.2250507644        2.7564636389       -2.5481709414
 H         -0.3774668056        3.5052114096       -2.4912139311
 H         -0.1611872886        2.1127549540       -3.1712340194
 O         -2.2423360064       -0.4228817202       -2.5883221621
 H         -2.2344664930        0.3965898792       -2.0575991631
 H         -1.8197595129       -0.1579943892       -3.4176919852
 O         -0.7102175241       -1.6979179273        3.9999258619
 H          0.2362106150       -1.5884907344        4.1564090285
 H         -0.7646412825       -2.3185858460        3.2534211472
 O         -1.0145386495       -2.8710116463       -2.1312051156
 H         -1.5985232995       -3.3923330366       -1.5665897782
 H         -1.4824255812       -2.0509766946       -2.3549962928
 O         -4.5178937865       -2.4582338259        0.8519687221
 H         -5.4104106439       -2.7538149974        1.0414853132
 H         -4.1735281185       -2.0844894784        1.6917047122
 O          4.2324925780        0.5893216262       -3.4422281234
 H          4.8915080234        0.9134504959       -4.0572274488
 H          3.7981803288        1.4010504202       -3.0615422136
 O          0.7743860277        2.6894529179        0.1296340163
 H          0.0376993841        3.1360346112        0.5889684460
 H          0.5393190199        2.6416358271       -0.8123599594
 O         -0.2684489503        2.7899218335        3.8201513134
 H          0.2779846579        2.1557242507        3.3039344164
 H          0.2914680746        3.1517210341        4.5071561377
 O         -1.6440595442        4.4952160758       -1.1880461889
 H         -2.2022545389        5.2558691956       -1.3529217724
 H         -1.5012179670        4.4571522725       -0.2251272742
 O         -3.5968244005       -1.5831071974        3.2162675913
 H         -3.4675507602       -0.6945524937        3.5705341336
 H         -2.9670341506       -2.1351560630        3.6886978019
 O          2.0791461025       -1.2761162379        3.6805225766
 H          2.4488468517       -1.8540797378        2.9792732067
 H          2.7785876269       -1.1541520272        4.3240418260
 O         -4.7444978963       -0.7845411110       -1.3779777316
 H         -3.9493136188       -0.7946659550       -1.9339495211
 H         -4.6093753919       -1.4281696835       -0.6657618073
 O          2.7195266152       -2.3811575787       -0.8391899400
 H          2.2864194616       -2.8028673690       -1.6364884434
 H          3.6023412619       -2.1034248962       -1.1463044457
 O         -2.1044842704        0.6629316637        4.0201099433
 H         -1.5460009446        1.4365306543        4.1904900977
 H         -1.5198209874       -0.1193480283        4.0713023293
 O         -4.8983273496        1.5656916704       -0.2013428666
 H         -5.6733707101        2.0379639800       -0.5056608122
 H         -4.9323870533        0.6724132982       -0.6316416809
 O          5.0632038215       -1.2811425705       -1.6870266139
 H          4.7586114306       -0.5673791365       -2.2910638659
 H          5.7345600250       -1.7742358020       -2.1602220980
 O          1.6728248973       -0.3944251763       -3.7304422192
 H          2.5756066971       -0.1095210587       -3.9383850623
 H          1.5724341235       -0.1797594917       -2.7774787414
 O          3.1496527923        1.0922588329        0.7886873682
 H          3.8951440095        0.4672367676        0.9545195480
 H          3.5251657361        1.9607250032        0.6013223761
 O          1.5350796703       -3.0855594982       -3.0282232877
 H          0.5978164750       -3.1841823607       -2.7862888363
 H          1.5836504120       -2.2360552998       -3.4987473273
 O          1.0504028685        0.9180742845        2.4332157452
 H          1.7900694356        1.1448127491        1.8282385320
 H          1.3635733397        0.1522913503        2.9483736881
 O          5.0002732813       -0.7646502481        1.0747481617
 H          5.1998052164       -0.9473172693        0.1439616121
 H          4.5383584353       -1.5439570416        1.4135066232
 O         -2.7773884767        1.5396570677        1.5903108349
 H         -3.7129394136        1.5314583993        1.3641827310
 H         -2.6668493915        1.2208057332        2.5083013819
