  249
       -422.61558836
 O         -3.1476766510       -2.7669451067       -1.1393596432
 H         -3.4477755314       -2.4859400583       -0.2576153808
 H         -2.4760549060       -3.4518133376       -0.9856886344
 O          3.2212704100       -2.2482079512       -0.3730906874
 H          2.9090778547       -3.1756046615       -0.3875917890
 H          2.8822805998       -1.8591695617       -1.2027180444
 O          2.2112000756       -1.6016252373       -2.7588482161
 H          1.2443092918       -1.5811187772       -2.8663640253
 H          2.5618129043       -0.8392019143       -3.2531096732
 O         -3.5662718382        0.7285864273       -5.1323319746
 H         -2.6555566830        0.8862306435       -5.4493126572
 H         -3.6972593997        1.4240867434       -4.4556586207
 O         -4.1549816447        0.1311970722       -1.9615341660
 H         -3.5754736542       -0.5161492224       -2.4124167809
 H         -3.8607273994        1.0281540212       -2.2249251881
 O          5.8137152060       -2.7918789382       -0.3548030275
 H          5.8589554982       -3.3750754232        0.4419390119
 H          4.8805035438       -2.4713012910       -0.3595594469
 O          0.6130953956       -2.9613347765        5.0249006708
 H          0.4597694286       -2.1799214362        4.4397732523
 H         -0.2272777512       -3.4277262988        5.0162357223
 O          2.8109216228        0.3753482490       -4.5397079233
 H          3.3492221594        1.1701045196       -4.4165946608
 H          1.9146561488        0.6453222074       -4.2146057179
 O          4.0144521551        4.0009216983        2.5141230600
 H          4.9748801891        3.9388414677        2.5678857804
 H          3.6727484259        3.1369573297        2.8239370399
 O          3.1961425856       -3.5961474076       -4.1813675876
 H          2.8069268619       -2.9180391156       -3.5829039460
 H          3.7974718483       -4.1096314653       -3.6092020696
 O         -0.3809349372       -2.0687146161       -3.4414000443
 H         -0.2803119928       -1.9514339989       -4.4047406996
 H         -1.3197452206       -1.8551474791       -3.2922912593
 O         -3.5023967411       -2.4649535878        1.5776567074
 H         -3.6053683215       -3.4401738649        1.4915448235
 H         -4.3501552127       -2.1460182302        1.9382357716
 O          1.6641440320        0.3267088898       -0.8770322860
 H          1.5639573286        1.1824412302       -0.3889382463
 H          2.5979406323        0.3023140061       -1.1558907622
 O          3.2375619445        1.5781207333        3.4160161551
 H          2.6280843548        1.3844102732        4.1611786363
 H          3.0028705103        0.9393340950        2.7271292416
 O          1.4405613977        0.7954504747        5.2112994426
 H          0.9094929344        0.2948460374        4.5590277345
 H          1.0032820429        1.6596892019        5.3169995520
 O          1.3955953394        3.5389097217       -3.1718910827
 H          1.2791033431        4.1509923324       -2.4241747612
 H          2.3483891463        3.3150643062       -3.2122074719
 O          0.6310838225       -3.8923408166        1.3424378249
 H          0.6993529925       -2.9284990802        1.1548865294
 H          1.2490068734       -4.0497622843        2.1017142463
 O          1.3689936613        2.6072791852        0.2913842786
 H          0.6122618492        2.9063862297       -0.2626995162
 H          2.1359377315        3.1824142800        0.1034507510
 O         -3.9904494886        1.5097939672        4.0012896052
 H         -3.4280803706        0.7132166598        4.1109906295
 H         -4.0002645672        1.6968198686        3.0288835573
 O         -2.8587367354        4.3528048453       -0.1251709873
 H         -2.4146378009        5.1207220423       -0.5315216236
 H         -2.5269764968        4.2781919358        0.7899079841
 O         -3.3880971522       -4.9999446398        3.9612436545
 H         -2.5347270156       -4.5655655678        3.7768481610
 H         -3.7084581552       -5.2842960735        3.0963823517
 O         -0.8934257350        0.9466949193       -5.4830188165
 H         -0.5274994420        0.9233236876       -4.5793972784
 H         -0.6502522399        0.0906922512       -5.8684314790
 O         -1.4198578846       -3.3311663439        3.1635365000
 H         -0.7906104732       -3.6509037777        2.5009040933
 H         -2.1184002112       -2.8539742241        2.6812030599
 O          5.1117804282        0.9857600032        0.8015861294
 H          5.8580558530        0.3506837974        0.8390222216
 H          4.3605298062        0.5203478547        1.2317766367
 O          3.1563453760       -0.5620323748        1.7354384461
 H          3.4757221923       -1.1526624898        2.4498923729
 H          3.0657745399       -1.1332826371        0.9517941733
 O         -3.5677268122       -5.0885887597        1.1023395231
 H         -4.3607278169       -5.1329308632        0.5186079451
 H         -2.8086751378       -5.2617022270        0.5344550686
 O          3.6612668446       -5.9135843182        1.6098235657
 H          3.1992628570       -5.7290152259        0.7830996450
 H          3.0970744256       -5.5836675517        2.3230256159
 O          7.4166745367        1.6591765929       -1.7142994061
 H          7.8634709912        1.5801456585       -0.8563391909
 H          7.1152736562        0.7713258586       -1.9596221624
 O         -1.3172339962        6.3545478540       -1.2012215981
 H         -1.1456785098        6.8208760567       -0.3771751632
 H         -0.4618776820        5.9570391880       -1.4241575224
 O          8.6077015420        1.3320992360        0.7764803211
 H          8.1253539444        0.4913736214        0.9110020187
 H          9.5410607233        1.1217339631        0.7849378584
 O         -5.9532030323       -1.8867668093        2.6489757233
 H         -6.5402259326       -2.2566118164        1.9799918774
 H         -6.1870501494       -0.9476268532        2.7541169626
 O         -6.8911002660       -2.5855840409        0.0152398984
 H         -7.2032496360       -2.5433538944       -0.9091257705
 H         -6.2806446906       -1.8242289548        0.0910304401
 O         -5.5649694917       -0.2513212249        0.2327993637
 H         -6.4172989951        0.1675569678       -0.0023154988
 H         -5.0025903602       -0.1738959612       -0.5634618269
 O         -4.2760184852       -2.5521181475        4.7338113619
 H         -4.0052182738       -3.4814312123        4.5798975150
 H         -4.9882247714       -2.3841198221        4.0994463278
 O          4.6695279740       -4.6278950991       -2.1574623641
 H          4.0095970967       -4.9674990048       -1.5439670050
 H          5.2594292488       -4.0617301698       -1.6341012083
 O          5.0999506588       -1.5605427464       -4.5493820638
 H          4.5745617696       -2.3784013434       -4.5352788545
 H          4.4850634022       -0.8339695811       -4.6956564872
 O         -3.7589788873        2.4903818902       -3.0835359792
 H         -3.0283647903        3.1370421813       -3.1007967979
 H         -4.5689803991        2.9906488464       -2.8776865674
 O          5.8112875503        3.7480166176       -1.6760924973
 H          6.4120308210        4.4921716723       -1.6848905633
 H          6.3782515949        2.9370140338       -1.6820177985
 O         -7.4909091442        2.5689177076        1.6040358122
 H         -7.0559608082        1.9864929840        2.2502084142
 H         -6.8089228029        3.1529211208        1.2363474363
 O         -7.7985199225        1.7862190509       -2.8675301993
 H         -7.2812097501        1.0910485552       -3.3180860585
 H         -7.9607801207        1.4461571748       -1.9704758693
 O          0.2707326996        3.2028837620        4.7757552882
 H          0.2062315480        2.7649084165        3.9012250057
 H         -0.6388720499        3.4296004824        5.0068637632
 O         -2.5490916024        3.5832586719        4.8600732272
 H         -3.1111646828        4.1479318988        5.3890638389
 H         -3.0914601472        2.7983525319        4.6040775930
 O          5.8384475101        1.3584284317        4.1271334503
 H          4.8714731596        1.4130181017        3.9809436223
 H          6.2252657085        1.9731884540        3.4733584156
 O         -1.7137420504        3.9977964249        2.2654668909
 H         -2.0732073292        4.0437775550        3.1634650717
 H         -1.1063878509        3.2189432111        2.2722468828
 O          1.2443802300        5.2399683941       -1.0196145139
 H          2.1846995090        5.1120564609       -0.8253885728
 H          0.8412694104        5.3955134802       -0.1324446499
 O         -6.1115525738        3.7144281292       -2.4829311438
 H         -6.4407148939        4.4969544672       -2.9236806413
 H         -6.7876592652        2.9925693826       -2.6446206152
 O         -2.9882986908       -1.4548474323       -3.7551532279
 H         -3.6688267453       -2.1306035780       -3.8511013837
 H         -3.2040927374       -0.7153887071       -4.3759624905
 O          6.5564512505        2.8923314539        1.9997275560
 H          7.4358052978        2.6721886398        1.6727593544
 H          5.9511108654        2.3268196385        1.4736647052
 O          2.2342530233       -4.7410223576       -0.5809371753
 H          1.7169069334       -4.7148879782       -1.4106804813
 H          1.5836522338       -4.5549331664        0.1325021760
 O          1.6765374515        5.2954790328        3.4390571029
 H          2.5372107511        4.9472284485        3.1697541546
 H          1.2694203541        4.6213402774        4.0058082075
 O         -6.0681282397       -0.0828522618       -3.8101662221
 H         -5.5726640854        0.1393253951       -4.6043579404
 H         -5.4221590270        0.0018424470       -3.0688921861
 O          4.2112767258        0.5576122277       -1.6212636346
 H          4.5417787546        0.8919394325       -0.7565974047
 H          4.9462795268        0.0023232287       -1.9571771178
 O          0.0895762299        5.8077554008        1.3167800806
 H          0.7416533674        5.7790642159        2.0456251571
 H         -0.6144769163        5.2069170851        1.6198678059
 O          3.9086057229        2.5964750432       -3.2898030932
 H          3.9776717363        1.8637476694       -2.6344229787
 H          4.5821093705        3.2242879590       -2.9958262982
 O         -0.2325068555        3.7151523372       -5.3910637912
 H          0.5210438910        3.6805859097       -4.7780766167
 H         -0.4510314921        2.7975006183       -5.6111828283
 O          4.1486228011       -2.1723692389        3.6172743633
 H          3.7065399633       -1.9155329144        4.4689734978
 H          5.0567664785       -1.8134269913        3.6923462191
 O          0.5927757556        1.0114105906       -3.2339095774
 H          0.8017600023        0.6673649814       -2.3399233709
 H          0.7328865269        1.9798094745       -3.1558029655
 O          6.5800715018       -1.0647112499        3.7067049715
 H          7.1726415511       -1.3177934605        4.4133560783
 H          6.3098813662       -0.1083521556        3.8894746158
 O          7.0523039685       -0.8415338761        1.0589988413
 H          6.7228890611       -1.5921902056        0.5231449445
 H          6.9421733922       -1.0825152267        1.9979198188
 O          6.3506883257       -0.8722929690       -2.3047822718
 H          6.3804549914       -1.6495389790       -1.7315464186
 H          6.0712469663       -1.1825319238       -3.1914964717
 O          2.8657399879       -1.5005424154        5.8109652949
 H          2.1079262380       -2.1000099555        5.8338189529
 H          2.4883362400       -0.6088220603        5.7519588942
 O          2.3895152311       -1.7953888897       -6.2420535052
 H          2.7126492168       -2.5325748552       -5.7039496908
 H          2.6200427689       -0.9748715058       -5.7759961532
 O         -5.4697843742        3.8767979660        0.1735201893
 H         -5.7935196456        3.7786366598       -0.7392977770
 H         -4.5598696519        4.2223168635        0.0646744811
 O         -4.6237584767       -3.7383412945       -3.0528764831
 H         -4.1137680257       -4.4836806502       -3.3703848772
 H         -4.1042450440       -3.3354729029       -2.3051854924
 O          0.6956750634       -4.4476799537       -2.7965732914
 H          1.3672961896       -4.5439038916       -3.4827517462
 H          0.2546420969       -3.5903440033       -2.9897848782
 O          0.1120089756       -0.8309214013        3.4945301265
 H         -0.8486579332       -0.7611489781        3.6323575720
 H          0.2557283723       -0.8898176264        2.5317734464
 O          2.2873122279       -4.1782695180        3.3451260155
 H          3.0133990943       -3.5333441693        3.3586807134
 H          1.6935107873       -3.8871956147        4.0731544514
 O         -6.4892771768        0.7069455185        3.4490181899
 H         -7.0312880010        0.6374862150        4.2349028328
 H         -5.5944224577        0.9978831640        3.7442495858
 O         -0.2066790589       -1.6623724197       -6.1309824560
 H          0.7773279352       -1.7182172683       -6.2656324791
 H         -0.6139452899       -2.1385322310       -6.8534192901
 O         -1.2384827242       -4.7114362186       -0.6145331316
 H         -0.6339919757       -4.4944333932        0.1107216067
 H         -0.6879493558       -4.8493442781       -1.3943604307
 O         -1.7562729082        4.2679909048       -3.3075038408
 H         -1.2633694580        4.1764063294       -4.1578969583
 H         -1.7767354168        5.1948333056       -3.0619577590
 O         -0.0329618704        1.9505958063        2.4456177716
 H          0.5971716848        2.1572220171        1.7299654992
 H         -0.6303494753        1.2300945817        2.1079570357
 O         -7.9690558399        0.8458902268       -0.2929417328
 H         -7.8920898941        1.5630170941        0.3960936726
 H         -8.7168690093        0.2995184308       -0.0506401302
 O         -7.1090015104       -2.4160963799       -2.6846450438
 H         -6.9430013430       -1.5704533806       -3.1264773572
 H         -6.3627086658       -2.9777495148       -2.9294033624
 O         -2.4800053632       -0.6849475127        4.4445384325
 H         -2.1664788334       -0.5765934654        5.3437015945
 H         -3.1342912859       -1.4405033572        4.4924613670
 O          5.6165241817       -4.0934140379        1.9152451429
 H          5.0378863758       -4.8763071908        1.8042903122
 H          5.1775698602       -3.5304680465        2.5631999576
 O          3.5533416817        4.1100221715       -0.1327613643
 H          3.7772525592        4.1634117191        0.8193259887
 H          4.3725076949        3.9178916634       -0.6155716257
 O         -4.2990342951        1.7851293147        1.4241215772
 H         -4.7714898790        0.9948774146        1.0888206876
 H         -4.7052651072        2.5548143245        0.9844510420
 O         -5.6194896791       -4.8884797521       -0.5570039107
 H         -5.4477635832       -4.6798450528       -1.4830612856
 H         -6.1456616271       -4.1311153258       -0.2230263039
 O         -0.8328651162        2.8485735523       -1.1620764140
 H         -0.9060080601        3.2690712978       -2.0325864396
 H         -1.6133693720        3.1803861638       -0.6865223168
 O          0.3011901859       -1.2369753703        0.8164357566
 H          0.8995335032       -0.7351366396        0.2201320877
 H         -0.5750156439       -0.8608991519        0.6530257345
 O         -2.0304414543        0.2469391551        1.1699880606
 H         -2.6282378253        0.9863095889        0.9756112577
 H         -2.6070346330       -0.5163991646        1.2903600653
 O         -2.1711375257       -5.3164384191       -3.6142463281
 H         -1.2567943854       -5.0264585791       -3.5281780829
 H         -2.2215458183       -6.1958716553       -3.2382786006
