  132
       -218.68810237
 H         -3.4285776922       -0.3021615679       -0.1981715739
 C         -2.4659253695       -0.4663254306        0.2887632894
 H         -2.5961902672       -0.3825772754        1.3697364648
 C         -1.4585645809        0.5761793828       -0.1846767480
 H         -0.5516721479        0.5082618601        0.4137249975
 H         -1.8844911342        1.5717572505       -0.0959363293
 O         -2.0530479926       -1.7645505763       -0.0672538795
 H         -1.1524964328       -1.9016770895        0.3026931340
 N         -1.1407826080        0.2977103839       -1.5947293974
 H         -0.5901838666        1.0524850605       -2.0456735935
 H         -2.0328602896        0.1840452454       -2.1387102845
 H         -0.6153414072       -0.6065491373       -1.6860567521
 O          2.1871033325       -0.2687409768       -0.9535152334
 H          2.2386345276        0.0416826363       -1.8754554610
 H          3.0511724927       -0.7012339229       -0.7750804312
 O          1.2125962657       -4.4533182536        1.8672880633
 H          1.6720112892       -3.7818330849        2.3897375719
 H          0.2711602820       -4.3278661455        2.0608412104
 O         -2.4128974848        2.1429220654       -4.3801242684
 H         -2.8094488043        1.3153787890       -4.0321400310
 H         -2.8082263175        2.3019396086       -5.2371610939
 O          2.4047987009        0.5451709510       -3.5345115162
 H          1.5398976392        0.9706638030       -3.6619879126
 H          2.3535566333       -0.3596494902       -3.9000264862
 O          0.4794562096       -1.5852424853        0.7920058889
 H          1.0887225814       -1.2466153991        0.1225837455
 H          1.0299280980       -1.8788843601        1.5369020634
 O         -1.4142837378       -3.5860706825        2.1234439657
 H         -2.3724561056       -3.7155386600        2.2814606480
 H         -1.2181678915       -2.6920930035        2.4435761110
 O          0.1538361246       -1.9899646407       -2.2002091082
 H          0.7968127821       -1.9578156078       -2.9297420714
 H          0.5510888298       -2.5836570206       -1.5223609568
 O         -2.4508028797        3.1263732119       -1.7512687660
 H         -3.3344854158        3.0814531349       -1.3564232505
 H         -2.5530961083        2.9950063189       -2.7018318377
 O         -2.9559848803        2.8505182704        2.1482809404
 H         -2.9827037508        1.9683104920        2.6027018092
 H         -3.1133787010        3.4911574499        2.8445408332
 O         -1.0861804988       -1.1702253750        3.5813387073
 H         -0.2901613204       -0.6077873616        3.5025603295
 H         -1.0065141769       -1.6245177192        4.4221285772
 O          5.4285165202        1.2794867808       -0.4589760058
 H          4.8644765919        1.2256574378        0.3496425003
 H          4.9075224567        1.7545848363       -1.1237962451
 O          4.7083168526       -1.4120389520        2.1778490515
 H          5.4530351864       -1.5054901212        2.7715734055
 H          4.4891543520       -0.4495992878        2.1319296435
 O         -3.1657667534        0.6013779313        3.4792904118
 H         -3.9209035862        0.0298906882        3.2667744019
 H         -2.3994903909        0.0038697738        3.5689075006
 O         -4.0953992147       -3.6712354198        2.2302935551
 H         -4.4071443694       -2.8004065102        2.5226811935
 H         -4.3285541797       -3.7422545276        1.2968703338
 O          2.1568709432       -2.0852544647        2.9075572157
 H          1.8684989709       -1.2292912761        3.2794304711
 H          3.0907288011       -1.9720769019        2.6651542842
 O          1.8383398386        4.0354274339       -2.5175806556
 H          2.0458301718        4.8953115984       -2.8852096954
 H          2.6692916343        3.5122007440       -2.5143693727
 O         -6.0810344985       -1.2278436058        0.1994435073
 H         -5.4358054235       -1.9379172082       -0.0947581148
 H         -6.9579369422       -1.5810142382        0.0429485571
 O          4.0285221010        2.4400806713       -2.6155401197
 H          3.5302548437        1.6728330991       -2.9715932650
 H          4.7272589904        2.6276312714       -3.2445234959
 O          4.7643429342        3.2662892595        3.0809582535
 H          5.5372718529        3.3974277474        2.5012080552
 H          4.1109133388        3.9340893160        2.7970392881
 O          2.8362835462        4.9238309520        2.1606050578
 H          2.7637054752        5.8764044024        2.1096056373
 H          2.2809182792        4.5549296934        1.4481098196
 O          1.1466583778        0.3557379800        3.4886257547
 H          1.7491544262        0.8896247076        4.0362206382
 H          1.1723411606        0.7555620950        2.6007530295
 O         -4.0262653158       -2.6109605690       -3.2231713141
 H         -3.1389671787       -3.0715206095       -3.0984079746
 H         -4.4400519647       -3.0242133158       -3.9806367578
 O          6.6454788470        3.2371983607        1.0806618344
 H          7.5911909361        3.1289021053        1.1815053327
 H          6.3464354184        2.5442530517        0.4609130048
 O         -4.3703736240       -3.0391597481       -0.5471874089
 H         -3.4743660181       -2.7023595956       -0.3361652221
 H         -4.4068904742       -3.0161389954       -1.5199985345
 O          0.1269940425        2.0062969203       -3.3042682180
 H         -0.6753215002        2.2068606398       -3.8127870359
 H          0.5375793996        2.8458287102       -3.0418388829
 O          1.2827776718        3.8934107627        0.1753642540
 H          0.3321646720        4.1238260903        0.3143896438
 H          1.4530900815        4.0007383369       -0.7745327485
 O         -3.4039185093        0.0148273202       -3.0683027446
 H         -4.1612058387        0.3555381304       -2.5344862695
 H         -3.6115944170       -0.9295942100       -3.2194469083
 O         -5.2009943123       -1.1377691919        2.7462349715
 H         -5.5492762515       -1.0544252003        1.8327150132
 H         -5.9550320227       -1.1725760925        3.3365360787
 O         -5.3575530734        0.8305270535       -1.4898422848
 H         -5.6919815315        0.1424994059       -0.8898802931
 H         -5.1713872540        1.6062856834       -0.9400912578
 O         -4.5969863439        3.0144305643        0.0206325013
 H         -4.0261616339        2.9141996040        0.8147756072
 H         -5.1488054197        3.7831388710        0.1687287500
 O          1.2139956122       -3.9600303880       -0.7356398184
 H          1.3396926625       -4.0740328524        0.2389257706
 H          0.4698303349       -4.5448419918       -0.9277728405
 O          3.4271383302       -3.2859967802       -2.2085670108
 H          3.9571560421       -2.6998299520       -1.6485743100
 H          2.7269485834       -3.6561461128       -1.6396040884
 O          4.0242989724        1.0975444138        1.7774615546
 H          4.3035691413        1.8611036600        2.3338242353
 H          3.0668993159        1.2246602842        1.5903449580
 O         -1.7762034403       -3.7671067908       -2.7757665046
 H         -1.1033307693       -3.0672667973       -2.6507478959
 H         -1.7925628166       -4.2356341401       -1.9238611610
 O          3.0036764969        1.8886046998        4.7905795387
 H          2.8305509521        2.4097590961        5.5746130660
 H          3.6860417533        2.3630986723        4.2914320448
 O          2.1283396126       -2.0515355549       -4.0716280816
 H          2.7027833654       -2.5269272039       -3.3966378511
 H          2.1524161228       -2.5869887200       -4.8643752127
 O         -1.4110209084       -4.8641093718       -0.2908436032
 H         -1.6947095544       -5.7295425523        0.0037620450
 H         -1.3909170372       -4.2986371063        0.5083906387
 O         -1.2969528340        4.3311862171        0.4046943517
 H         -1.7435240972        3.7995956311        1.0790210489
 H         -1.6563139332        4.0358484563       -0.4483163623
 O          4.5968168792       -1.3443027696       -0.5584092282
 H          4.6860513081       -1.5874848075        0.3795527015
 H          5.1252476786       -0.5328330695       -0.6699981082
 O          1.5105449545        1.3903662738        1.0052615639
 H          1.7054329090        0.8350890340        0.2204198172
 H          1.4253544078        2.3197849304        0.7031646994
