  309
       -524.49044112
 O         -2.3151382917        1.6707554013       -1.7744337689
 H         -1.3705154208        1.3429237171       -1.8916658980
 H         -2.7296946198        1.7422058963       -2.6528492985
 O         -1.2330349846        0.7805375920       -4.6423313375
 H         -2.0829996515        1.2424568973       -4.6925187590
 H         -0.5487118332        1.4796858238       -4.5430738975
 O          2.5826299257        5.4635219406       -1.6677866147
 H          3.4331234549        5.5505714864       -2.1734416452
 H          1.9480101272        6.0991690365       -2.0263653929
 O          4.7309726974       -3.7410646546        3.6482955120
 H          4.7023322809       -2.8470317993        3.2273613579
 H          4.5498973458       -3.5451442089        4.5737227050
 O         -3.5963696118        2.0808391342       -4.1360357399
 H         -3.6371700375        3.0291731579       -3.9215572835
 H         -4.5176654580        1.7723865700       -4.1829170394
 O         -3.8937597751        3.5794922000       -0.4866937323
 H         -4.7864975675        3.7524653138       -0.1124382466
 H         -3.8046342873        2.6321338394       -0.6394832233
 O          2.0916577373       -0.6355747701        2.9049032581
 H          1.7390704992       -1.0013981898        3.7374397938
 H          1.6504522345        0.2205846480        2.7692699806
 O          2.6549701566        5.1668103138        0.9568399164
 H          3.5416748810        4.8308995100        1.2343613980
 H          2.7552725426        5.3878789871        0.0052547673
 O         -1.6791694799        1.2856653870        1.7707387227
 H         -2.2485823125        0.8686570810        2.4578964759
 H         -1.9832672534        0.8152725048        0.9692913508
 O         -3.5591144071        0.0880387987        3.1175381140
 H         -4.1590154680        0.3944959054        2.4045233364
 H         -3.8952519469        0.5086097891        3.9367615779
 O          1.0630241636       -1.8913826261        5.1264214548
 H          0.8653677161       -2.7491877864        4.7036391436
 H          0.2087317639       -1.4881512888        5.3157342701
 O          4.5340014869       -2.1991251055        0.0370658807
 H          5.0763678283       -3.0113604388        0.1490775837
 H          4.9659639734       -1.7006824453       -0.6917328884
 O         -5.2976868802        6.0016839284       -1.2179879709
 H         -4.3674854145        6.1305739107       -0.9539209521
 H         -5.7555414231        5.7804125134       -0.3974499392
 O         -2.9349805553       -0.2098024985       -0.0907818804
 H         -2.7685476354        0.3899123339       -0.8483408351
 H         -2.3461245180       -0.9798241563       -0.1693764395
 O          0.2805657996       -2.6256356315       -2.3307726696
 H          0.0808028067       -3.3638941982       -2.9525634930
 H          1.1078708136       -2.8906736354       -1.8803835571
 O         -1.7514374005       -2.5933220031        0.1632891921
 H         -2.4254434914       -3.2504899207        0.4276859418
 H         -0.9947102037       -3.1313965631       -0.1311030980
 O          0.3037101503       -3.9278814995        3.5713204080
 H          0.7519916910       -4.8140181202        3.5389220751
 H         -0.6483622887       -4.1228589621        3.5817770080
 O          1.6979498737       -3.5549151686       -5.8559238745
 H          1.2395110245       -2.7872003343       -6.2156376164
 H          2.4455629379       -3.2253734274       -5.3232666468
 O          0.2540297130       -4.3200560617       -0.1061519926
 H          0.4635808586       -4.9262765630       -0.8492613669
 H          1.0547087835       -3.8665745709        0.1945936725
 O          1.8769794053       -2.9637718278        1.5527302454
 H          2.0220236565       -2.0546121443        1.8746624643
 H          1.3079945179       -3.3601956016        2.2361083568
 O          0.5538468048        2.7537307153       -4.3259686647
 H          0.0140445760        3.5401616681       -4.1360933492
 H          1.2173576796        2.7424875259       -3.5965116945
 O          5.6885153097       -1.2569807344       -2.1484075122
 H          5.5138144028       -0.3079893995       -2.2621341970
 H          6.6103682801       -1.3534652416       -1.8504174527
 O          4.9301227063        3.9968307598        1.6173010280
 H          5.3359961079        4.0615426060        0.7216785065
 H          4.6727204718        3.0487008704        1.7020297287
 O          2.7484084643       -3.3007888738       -1.5745817574
 H          3.3134040126       -2.8522534502       -0.9043124292
 H          3.1256475142       -3.0620102393       -2.4435683367
 O          1.2878602794       -0.8525598101       -3.9628323982
 H          0.7540552596       -1.0288065836       -4.7657139108
 H          0.9036782354       -1.4673647408       -3.2877406746
 O          2.3435686535        2.8649339839       -2.3374829927
 H          3.1912620547        2.7859181171       -2.8164329802
 H          2.3233495748        3.7873863382       -2.0176368488
 O          1.3326205843        0.9534705349        5.5741227198
 H          0.5067405912        0.6037772560        5.1645005648
 H          1.4541935846        0.4731380682        6.3935904423
 O          5.0238000052        1.3591931982       -1.5574500326
 H          4.0985000888        1.3208956741       -1.2564993062
 H          5.5200905169        0.9844987178       -0.8103295311
 O         -7.3784676068       -1.9481738924       -0.6627052261
 H         -6.4057387271       -2.0272608770       -0.5265145894
 H         -7.7714474709       -2.1916470172        0.1798493879
 O         -2.3931312783       -4.2004540425        3.4171165056
 H         -2.9305277721       -3.6234547542        2.8214107720
 H         -3.0068660042       -4.8205785469        3.8097737785
 O         -6.6083447610       -2.4971270429       -3.2401304763
 H         -7.1991794615       -2.3789413925       -2.4857973846
 H         -5.8601912598       -1.8912028861       -3.0763730454
 O          4.5095093483        2.7617021812       -3.9711247050
 H          5.2683923143        2.2229581417       -3.6921676144
 H          3.9780132005        2.2069972657       -4.5681268413
 O         -2.5923534305        3.7432464884        1.8603457002
 H         -2.1894590852        2.8438661424        1.7837135271
 H         -2.9298656177        3.9354405706        0.9632842099
 O         -4.6744594974       -1.8754953611       -5.4297334334
 H         -5.4637752074       -2.4000848763       -5.2734190172
 H         -4.6613819971       -1.2213349423       -4.7091875286
 O         -3.1662439833       -4.0256991896       -2.0867739056
 H         -2.8935328106       -3.8470570092       -2.9980151890
 H         -2.6464207653       -4.7888216174       -1.7796539657
 O         -5.4018570472        1.3616261128       -1.3860727050
 H         -5.5478178862        2.2664362903       -1.7139502275
 H         -6.2899576711        0.9514205342       -1.4675856563
 O         -1.0941336692        3.8867163161       -0.7769074374
 H         -0.2617158144        3.5906674476       -0.3506543951
 H         -1.6064796516        3.0893930231       -1.0034759982
 O          3.1300155488       -5.9293947207       -1.1465053077
 H          3.1624611638       -6.0102372806       -0.1882173456
 H          3.0757535611       -4.9681539725       -1.3325650624
 O          0.8283150967        1.7620909621        2.6133322835
 H          0.9194364582        2.6071456858        3.0924751883
 H         -0.1195945213        1.5804949420        2.4659991786
 O         -0.4066394789       -1.4964782212       -5.9340103107
 H         -0.8179661030       -0.6237094217       -5.8317352464
 H         -1.0816443063       -2.1331849728       -5.6356087310
 O         -5.2071385105        1.0815201842        1.3018169527
 H         -6.0803422815        0.6855304097        1.5380881253
 H         -5.1729952133        1.1236757170        0.3294622293
 O          6.6135408564        0.2115227790        3.5903675656
 H          5.9101371688       -0.3595811819        3.2162399427
 H          6.2528574976        0.5431520277        4.4139395617
 O          4.6585185361       -1.3362070080        2.5343493738
 H          4.6403904818       -1.5434079000        1.5754383054
 H          3.7712015053       -0.9988148264        2.7562036814
 O          5.7569432539       -4.5603323269        0.0607097985
 H          5.7087594498       -4.6315106615       -0.9101261566
 H          4.9948024055       -5.0358395550        0.4305681786
 O          1.1723862847        3.0424843741        0.2994603497
 H          1.7082057873        3.8352696250        0.5095058305
 H          1.0475856321        2.5639179132        1.1465217104
 O         -6.1313613537       -4.6896356833        0.6220955385
 H         -6.5797035304       -5.5106630218        0.8230796150
 H         -6.0679749209       -4.6537616211       -0.3746058105
 O          2.7068546291        1.1572298617       -5.2542389707
 H          2.0179081689        1.8218120960       -5.3776143203
 H          2.2892185767        0.4806869121       -4.6990272691
 O          5.0761681771       -0.5399774465       -5.0773471518
 H          5.7295799116       -0.0209917791       -4.5845150591
 H          4.4028871072        0.0776078888       -5.3840643771
 O          7.1399915216       -4.0660793712        2.4127696278
 H          6.8101367250       -4.4020378173        1.5673491042
 H          6.3630747497       -4.0344033741        3.0018729774
 O          3.4599221301       -2.4163912423       -4.0537431559
 H          4.2171886555       -1.8906862577       -4.3825613417
 H          2.7293499996       -1.7641439603       -4.0075644294
 O         -7.8149947667        0.3617146325       -1.8521435618
 H         -7.7129245466        0.2088979343       -2.7951728243
 H         -7.7626216303       -0.5127361215       -1.3994402078
 O         -6.3437242022        1.7712728400       -4.1764339279
 H         -6.7265866585        1.9940936977       -5.0241803650
 H         -6.4806917546        2.5345480096       -3.5892181505
 O         -1.8965512875       -1.0767500351       -2.8156804285
 H         -1.1556868684       -1.5605556735       -2.4206879104
 H         -1.5363621265       -0.3881666655       -3.4143417588
 O          4.3520968591        1.4498992723        1.9260102014
 H          3.6481685187        1.1343713110        1.3347266008
 H          4.1235618189        1.2105427651        2.8481489138
 O         -3.5900216803        4.5550132110       -3.0155636131
 H         -4.1330950494        5.3458530440       -3.0152133613
 H         -3.6083112055        4.2397121103       -2.0824670907
 O          5.8590082552        3.8622064359       -0.8779861321
 H          6.8278948056        3.7549874146       -0.7239656420
 H          5.5476387122        2.9974241349       -1.2169389861
 O          8.1391293686        0.7137363143       -1.4051681619
 H          7.5166188194        0.6247887844       -0.6518856466
 H          8.5782135493       -0.1412938890       -1.4609044069
 O          0.3904657764        6.9755363919       -2.3972964437
 H          0.1795955690        7.7484368381       -2.9190258389
 H         -0.1111909418        6.2162371386       -2.7816699104
 O          7.8029744751       -1.6196849157        1.7191029931
 H          7.5803735478       -2.5324359581        2.0365259612
 H          7.9282531841       -1.0849397424        2.5094475114
 O         -0.8899099299        4.8004581207       -3.2244401691
 H         -0.8329314051        4.4447567250       -2.3007373964
 H         -1.8496995373        4.8427362641       -3.3757760483
 O         -5.4384403708       -2.3941936933        4.5003407979
 H         -4.9938837840       -2.4476622767        3.6296021661
 H         -4.6974321675       -2.2810250701        5.1165377197
 O          0.1850523732        6.6996522969        0.3950100162
 H          0.2220367381        6.8309401364       -0.5651702932
 H          1.0542487198        6.3671590867        0.6435809736
 O          3.8899270440       -1.7470164499        5.4880664764
 H          2.9303308831       -1.8419204555        5.5082700687
 H          4.0655436284       -0.8489824597        5.1853258607
 O         -0.7714507216       -1.4635479917        2.4074724929
 H         -0.3663017733       -2.2435985397        2.7951849985
 H         -1.2110309801       -1.7794823938        1.5944807416
 O          6.2983089566        0.2333427007        0.4958706045
 H          5.7662325238        0.7081996364        1.1622209127
 H          6.7642746678       -0.4772426352        0.9758361812
 O          7.4128693293        2.5056347775        2.1991180147
 H          6.6643103220        3.1052177617        2.2930313356
 H          7.1880772064        1.6923112274        2.6814042133
 O         -8.0638328462        2.1684441245        0.2581316133
 H         -8.0462292810        1.5483850354        1.0030166847
 H         -8.1766360352        1.6170508171       -0.5268967406
 O         -1.8626022592        2.5888930724        4.5618326983
 H         -1.1408914700        2.9860093157        5.1026355748
 H         -2.0595023575        3.2275175313        3.8704940527
 O          1.3118711220        4.3467394933        3.2791698168
 H          0.4545197482        4.8420921578        3.1804436680
 H          1.8423974143        4.6871566243        2.5437220958
 O          0.3120015356        3.4842970559        5.7861452345
 H          0.7659303355        4.0497812059        5.1519022150
 H          0.8147567676        2.6512442154        5.8164706086
 O         -3.4047276343       -4.6705009482        0.8245994598
 H         -4.3744715586       -4.6101847852        0.8408167697
 H         -3.1817974103       -5.3020932915        0.1337305875
 O          1.3863640548       -6.2344610627        3.0358949021
 H          0.6436467846       -6.4695809871        2.4536030728
 H          2.1523863004       -6.0313315389        2.4719185379
 O         -4.7279761336       -2.1459199031       -0.3668168288
 H         -4.2193077194       -1.3066534208       -0.3493728448
 H         -4.2294311759       -2.7506359176       -0.9344129377
 O         -5.7629854276       -4.7587013068       -1.9617017471
 H         -4.8000784210       -4.6133346680       -2.0413239069
 H         -6.1635796232       -4.0638515463       -2.5161791073
 O         -7.2425488250       -2.6418745360        2.0899325752
 H         -6.7628336113       -3.3514497972        1.6250103050
 H         -6.9648923325       -2.6869596841        3.0106204082
 O          5.5621666741       -4.0121808133       -2.5902680236
 H          5.0021755844       -4.3148987491       -3.3058115896
 H          5.5549031534       -3.0428520013       -2.6282751849
 O          3.5051875865       -5.0888733063        1.6120260042
 H          4.0142478031       -4.8693753623        2.4135780739
 H          2.9943660804       -4.2651670846        1.4564935469
 O         -6.6911376159        0.0227993905        4.5998336672
 H         -6.2921203637       -0.8699470457        4.6468457468
 H         -6.0323176647        0.6283138641        4.9585715453
 O         -6.2559291383        4.1480318015        0.6636892343
 H         -6.9512914860        3.4729893683        0.5415111903
 H         -5.9800662728        4.0607551732        1.5942148792
 O         -0.9906495541        0.0010432069        4.6222085889
 H         -1.4280872746        0.8689926301        4.5548690304
 H         -0.9683741185       -0.3881831619        3.7211610862
 O         -6.4559517477        3.7501021011       -2.2444524098
 H         -6.0006631242        4.5787840639       -1.9797760017
 H         -7.2321636382        3.6945396296       -1.6809249587
 O         -0.9255269161       -6.0250778065        1.5409652333
 H         -1.6245976837       -5.5436478304        2.0017738275
 H         -0.4713896953       -5.3465526965        0.9916243932
 O         -4.5673248156       -0.6859596372       -2.9636551803
 H         -3.6317713101       -0.8692068528       -2.7853348953
 H         -4.7878228815        0.1216338563       -2.4670591204
 O         -7.5009297077        0.1031442453        2.0864635370
 H         -7.5163510760       -0.8601652266        1.9629420181
 H         -7.3373515514        0.2081524526        3.0536735993
 O         -4.4443176929        1.7157366477        5.0406194426
 H         -4.7930923971        2.3745664639        4.4032358870
 H         -3.5680050740        2.0463779146        5.2837247662
 O         -3.9662932079       -2.4087068289        2.2595960843
 H         -4.3044425964       -2.3577354466        1.3477292643
 H         -3.6426380939       -1.5201759747        2.5060397063
 O         -0.0910582385       -4.4983856478       -4.1632757534
 H          0.5825424322       -4.2589195880       -4.8458909028
 H         -0.9513292680       -4.2532780906       -4.5277016002
 O         -2.6246228885        6.1710378063       -0.4838925998
 H         -2.0461202093        6.7912073014       -0.0366886993
 H         -2.1080174316        5.3495994233       -0.5587032681
 O         -2.7920140987       -2.0985519790        5.3558413814
 H         -2.3163789831       -1.2828699724        5.1445855589
 H         -2.4977078345       -2.7611072341        4.7162851966
 O          8.0575975532       -2.0358166976       -0.9888676015
 H          7.9907568499       -2.9818146148       -1.1319334500
 H          8.0654857211       -1.9075651697       -0.0231711831
 O          8.3582726976        3.2619322621       -0.2627598682
 H          8.5451526883        2.4362137643       -0.7278100668
 H          8.1886936779        3.0124125226        0.6639885998
 O          3.9334039016        3.7877589363        4.3095728597
 H          3.0175061590        4.0328149284        4.1242275664
 H          4.4435326363        4.0707617161        3.5412286650
 O         -2.3732512145       -2.9803696581       -4.6234375951
 H         -3.2056631236       -2.7208674019       -5.0710757529
 H         -2.2343254531       -2.2771017207       -3.9471080074
 O         -0.8857525862        5.6289989352        2.7122411755
 H         -1.5559085743        5.0037022384        2.3748627791
 H         -0.6106785952        6.1529727500        1.9457804859
 O          3.8725440435        1.0995667932        4.5459716742
 H          4.0432901719        2.0586365662        4.6315431165
 H          2.9398909239        1.0035175425        4.8042105694
 O          4.8643665791        5.3185518798       -2.9288716597
 H          4.7479930194        4.5563246533       -3.5157678119
 H          5.3639567219        4.9601135663       -2.1680915121
 O         -1.9473495812       -6.3013814497       -1.0360622068
 H         -1.6418212377       -6.4708160357       -0.1273370204
 H         -1.1464094442       -6.4021407958       -1.5695928600
 O          0.6171441433       -6.0995877825       -2.0563034338
 H          0.5206582255       -5.6836824479       -2.9260229047
 H          1.5687469554       -6.2595678954       -1.8944755200
 O          6.8281977916        1.2047045920       -3.7187334172
 H          7.4650174521        1.6424298735       -4.2834918248
 H          7.2761623787        1.0656919370       -2.8546295443
 O         -5.0226264073        3.2331182583        2.8885265443
 H         -5.1422547738        2.4266995339        2.3412030519
 H         -4.1313399716        3.5565637279        2.6476381769
 O          2.7338233700        0.6661465159       -0.3798750687
 H          2.1949735905        1.4671965530       -0.4368770392
 H          2.1045375413       -0.0671302246       -0.4711370525
 O          0.1649583839        1.0061026268       -2.0861696370
 H          0.4890560938        0.4788234281       -2.8274203045
 H          0.8261022624        1.6882897573       -1.9177332555
 O          0.5470537360       -0.8628884633       -0.1011348136
 H          0.3199362887       -0.8571782180        0.8336401478
 H         -0.1559073896       -1.3060317960       -0.5756602601
