  251
       -422.19290035
 H          1.0226502488       -1.3081020387       -0.5576057655
 C          0.6767101728       -0.3747423194       -0.1096471742
 H          1.5356482479        0.2595940717        0.0985138640
 C         -0.0555761982       -0.6757982906        1.1921117003
 H         -0.5997880771        0.2264068768        1.4856316024
 H          0.6780712155       -0.9084621154        1.9644972759
 N         -0.9555817120       -1.8272053575        1.0641820906
 H         -1.6962872691       -1.7186947770        1.7455120334
 H         -1.3952058856       -1.8173829524        0.1527001342
 O         -0.1213172685        0.3492595441       -1.0321232665
 H         -0.8332406556       -0.2381367293       -1.3668265801
 O         -1.5050072764        2.1954629944       -3.6675031439
 H         -0.7326395573        2.3037533039       -3.0656087087
 H         -2.1867138259        2.7623026357       -3.2806202209
 O          0.5903616313        2.9127696000       -2.2185162835
 H          1.3547904130        2.7781348605       -2.8166196850
 H          0.4178344438        3.8724950095       -2.2295822591
 O         -2.8938504053       -4.8896321447       -2.5568633981
 H         -2.7877724119       -5.6471657562       -1.9757273111
 H         -2.0906738807       -4.3674883158       -2.4594386358
 O          5.2039415566        4.2220816873        0.6350139245
 H          5.5210591024        3.3063028921        0.7618163302
 H          4.2486174286        4.1154412025        0.4292809471
 O          2.8738205736        5.0651037457       -2.4675549155
 H          2.8110843794        4.3668137313       -3.1468497808
 H          2.0415365648        5.5520874998       -2.5062040537
 O          0.6298520262       -0.3396788422       -5.3056424302
 H         -0.3128634714       -0.5166576446       -5.1707271797
 H          1.0545145140       -1.1980827066       -5.5305830027
 O          6.6727823391       -2.0242514748        0.4245008201
 H          7.4896162074       -1.8089587630       -0.0784999512
 H          6.8505342599       -1.7770765264        1.3693803255
 O         -3.3469816813       -4.2597628128        3.0831751217
 H         -3.6863898719       -4.4571586081        2.1770011388
 H         -2.4045088283       -4.4897627557        3.0215070665
 O          3.0957586915       -1.8640550191       -2.1511350898
 H          3.8409003163       -1.4287199654       -1.6811265724
 H          2.4965502668       -1.1249425103       -2.4066013989
 O         -2.8605576948       -1.6824884225        3.3257495652
 H         -3.1057091198       -2.6360926973        3.2215404360
 H         -3.3243449205       -1.3704953668        4.1266898237
 O          1.7522189504        1.9275723417        2.1879628269
 H          1.1743653075        2.3057640623        1.4969977902
 H          1.1449313119        1.5586764317        2.8602683704
 O         -0.3562008939       -1.5168547180        4.4355423387
 H          0.2375221140       -2.2015750310        4.1150096639
 H         -1.2205733271       -1.6564424205        4.0087859825
 O          5.8731853794        1.6159345975        0.9176206390
 H          6.2244106803        1.4986660224        1.8175096710
 H          6.5789819610        1.4177238613        0.2759004658
 O         -5.0416991286        2.9778706758        0.6945422314
 H         -4.1179568007        2.6466438575        0.5979002502
 H         -5.3871380601        2.9566257300       -0.2309918080
 O         -2.4328557982        1.7962048798        2.8691555312
 H         -2.7237329173        1.3228057838        2.0696741484
 H         -2.3245486379        2.7396911665        2.6370550775
 O          4.4346138601        5.1045499329        3.1213305176
 H          4.8888850388        4.9373912825        2.2748561177
 H          3.5468640315        5.4168800989        2.8783625769
 O         -6.6052349700       -4.2151814709        0.0466409616
 H         -6.2853873869       -4.0086332962       -0.8569049577
 H         -5.9966050512       -4.8915799557        0.3635717867
 O         -4.7160497153        1.4050804939        4.2950912306
 H         -3.8587025228        1.6047891427        3.8647485695
 H         -5.3552006961        1.2874912864        3.5779813261
 O          2.4451510454        2.9465843053       -4.1260309938
 H          3.1090219340        2.2689950523       -4.3375909260
 H          1.7418425029        2.8546435594       -4.8110054974
 O         -4.7440477966       -0.0455272591       -4.3407988344
 H         -5.1668994886        0.6547031793       -4.8379787487
 H         -5.4744929167       -0.5886961396       -3.9470008921
 O          6.1220637759        1.3211106343        3.5721345765
 H          5.2341492617        1.7436736994        3.6905391367
 H          6.6783362210        1.6727960216        4.2664330520
 O         -5.9998082102       -0.5749258385       -0.5469793295
 H         -5.8434133405       -1.1856724127        0.2025215375
 H         -6.7294434751       -0.0068232800       -0.2845780331
 O         -5.5567241263       -2.1999217880        1.5241462651
 H         -5.8993930080       -2.9884245511        1.0652721056
 H         -5.5788414638       -2.4127115058        2.4706552116
 O         -3.7081224006       -0.1010639147        1.3138401409
 H         -3.4522170356       -0.6811781584        2.0591280819
 H         -4.6351709263        0.1248058000        1.4830861848
 O          1.9284874037       -2.6488380462       -5.5977118327
 H          2.8405829869       -2.3295969459       -5.4801733844
 H          1.7952987283       -3.3101598149       -4.9064787490
 O          0.3993420161        2.3815700477       -5.7137039260
 H          0.5540560541        1.4283647987       -5.8097388671
 H         -0.3832939107        2.4527225946       -5.1449421079
 O         -0.2928852244        5.3420272836        0.5729389313
 H         -0.1788376352        4.3561227680        0.4537599367
 H          0.4768611440        5.5828543990        1.1364735480
 O          3.4926448664        1.4999809256       -1.3551477464
 H          2.8812249214        1.1477928261       -2.0267258290
 H          4.0433474763        0.7557187214       -1.0595465657
 O         -8.5648120658       -2.1358289377        0.8337125407
 H         -8.3465038881       -2.0242370761        1.7819099358
 H         -8.0183594245       -2.8613906408        0.5056403649
 O          1.7190980333        0.2422889051       -2.9589974358
 H          1.3559856801        0.1074691098       -3.8627971480
 H          0.9603715972        0.4284996930       -2.3690136446
 O          5.2482546076       -0.5383240243       -1.3039255330
 H          5.7528581475       -0.8866777404       -0.5443996116
 H          5.7774831576       -0.7985578879       -2.0844666287
 O          5.6681230525        2.3394816206       -2.6668612506
 H          4.8783427998        2.0872374637       -2.1358095018
 H          5.7357603043        3.3216158811       -2.5389690227
 O          1.9007043044       -4.1104396241       -3.1300460672
 H          2.1254009170       -4.8905700288       -2.5985503666
 H          2.4211633583       -3.3729500014       -2.7623736133
 O          5.5276172728       -3.8007506367       -1.4106619924
 H          6.0887953430       -3.4099292278       -0.7211477605
 H          4.6697468014       -3.3685707191       -1.3263330938
 O          3.6175542311        0.2162623614        1.4080619053
 H          4.4344712181        0.7133809427        1.2126911344
 H          2.9350794045        0.8840330657        1.6272521773
 O          6.5296985661       -1.9255224451       -3.2288117452
 H          5.8809914767       -1.8458540879       -3.9533846464
 H          6.3208131045       -2.7661243858       -2.7862236738
 O          4.2449049773       -1.5177716018       -4.6163677110
 H          3.8139776543       -1.6806586588       -3.7532396112
 H          4.2440533062       -0.5518909790       -4.7323107744
 O         -6.2428854234        0.9760404683        1.9891775388
 H         -5.8714912856        1.7829004409        1.5686224205
 H         -7.1017647488        0.8342283432        1.5622393702
 O         -0.0550407409        1.1124036634        4.0214894389
 H         -0.9418411272        1.3168349243        3.6663065637
 H         -0.0864475458        0.1562965804        4.2414211083
 O         -5.6060946557       -2.9473589886        4.1806289276
 H         -5.2088796923       -2.2947874501        4.7795829395
 H         -4.9509523633       -3.6476130017        4.0598235885
 O         -3.8562443640       -4.7202557167        0.5215609170
 H         -3.0295582010       -5.1746367973        0.2763439607
 H         -3.7753673807       -3.8145299252        0.1653030137
 O         -5.2696776975       -3.5132001361       -2.1968895986
 H         -4.7615740890       -2.9272369038       -1.5983212954
 H         -4.6026935041       -4.1397744951       -2.5171377964
 O          3.9796297220       -2.3111208459        0.6450420171
 H          3.7248870544       -1.4121305103        0.9249050776
 H          4.9495543442       -2.3000460350        0.6517245114
 O         -3.0641047493        3.8613780088       -2.0919940396
 H         -4.0173870567        3.7294663309       -2.1832718702
 H         -2.9375033534        4.7336690396       -1.6525957120
 O         -7.8261433864        1.2071115138       -2.3274172129
 H         -8.2075147297        0.9739748516       -1.4685427041
 H         -7.6768067343        0.3746858005       -2.7910944806
 O         -1.3299243824       -5.6519225640       -0.0924892073
 H         -0.9546572024       -4.9963234627       -0.7038451804
 H         -1.0565036236       -5.3528648277        0.7944411570
 O          0.2612553375        3.9562331780        3.9519565990
 H         -0.6326379597        4.1893394523        3.6719332457
 H          0.2416234071        3.0154352855        4.1617313353
 O         -2.6898235870        6.0495517893       -0.6416672521
 H         -3.3791740717        6.0002946276        0.0391807494
 H         -1.8507830568        5.9461831709       -0.1664447052
 O         -2.0016299795       -0.2995403526       -4.4683800836
 H         -2.9443341404       -0.3492006313       -4.6779198309
 H         -1.8440459021        0.6287730416       -4.1768887791
 O         -3.6442955974       -2.1911868067       -0.5088111117
 H         -3.7507384990       -1.4847355317        0.1556685184
 H         -2.9972531857       -1.8695646019       -1.1671096263
 O         -4.4544781667        5.4512642560        1.4155992163
 H         -5.1921475709        5.8892621036        1.8379161798
 H         -4.7604166782        4.5451328425        1.1600120995
 O          1.6468123513       -3.3323653189        3.0448603884
 H          2.3791841288       -3.9751362296        2.9957728303
 H          2.0974121232       -2.4983958345        3.3061602573
 O          4.5099128841        1.2320830409       -4.7755044445
 H          5.0567580941        1.6042807689       -4.0414264070
 H          4.9249256426        1.5018562789       -5.5944612618
 O          2.6839218900        3.7340387576       -0.1062866899
 H          2.6878146625        4.2948803484       -0.9071539329
 H          2.8734418234        2.8365700123       -0.4350765703
 O         -2.6033447625        2.1823872232       -0.0647152735
 H         -2.8164961433        1.3199745028       -0.4512019069
 H         -2.6558491684        2.8053563620       -0.8260628018
 O          5.6376867846        4.8620230460       -1.9727369318
 H          5.6229562036        4.7603427286       -0.9984086537
 H          4.7516900535        5.1692014481       -2.2095930315
 O         -0.7556114233       -4.2988494237        2.1896998512
 H          0.0457129137       -4.2681073175        2.7251984842
 H         -0.7779113497       -3.4250451438        1.7230015190
 O          0.1569180158        5.6112546474       -2.0725147128
 H         -0.6590247615        5.9729643008       -2.4215782687
 H          0.0743885342        5.6472728427       -1.0943934821
 O          7.6430197114        1.4801986339       -1.1388658027
 H          8.2738553606        2.2001779899       -1.1451951261
 H          6.9270938928        1.7309769062       -1.7794939031
 O         -1.7075279537       -1.4646811565       -2.1398939337
 H         -1.8228534485       -1.1262709866       -3.0577098917
 H         -1.1519612822       -2.2680188850       -2.1658564227
 O          2.5010660309        0.8353303875        5.3953035414
 H          1.5781866237        1.0645953830        5.2486084934
 H          3.0289681244        1.5629311469        5.0246819055
 O         -0.0311116223        2.7694405451        0.3714564552
 H         -0.9396558696        2.4105030321        0.3333573557
 H          0.3324851528        2.6189274650       -0.5235924132
 O          1.5652735603       -3.4643405354        0.3086327691
 H          2.4222133367       -3.0302534485        0.1696040857
 H          1.4321716393       -3.4157192555        1.2769188860
 O         -8.4581320560        0.4144780414        0.3395501872
 H         -8.5411947542       -0.5776683133        0.4481491776
 H         -9.2893584887        0.7749689315        0.6490283407
 O          3.8334216269        2.6289154577        3.8079400448
 H          4.0929839446        3.5766399382        3.6970943108
 H          3.1277558395        2.4769621311        3.1546069957
 O         -7.7663281466       -1.3690282556        3.3192749463
 H         -7.1516536117       -0.6549211179        3.1202947258
 H         -7.2485687209       -2.0450571960        3.7749095649
 O          5.1316405119       -2.8553832989        4.2004692073
 H          4.3732383476       -2.2439845155        4.1753552306
 H          4.8645281074       -3.6241171808        3.6755718044
 O          1.8480399121        5.1716193101        2.1169593790
 H          2.1464214618        4.5022772858        1.4784435924
 H          1.3847375432        4.6977427345        2.8379979919
 O         -0.2685175898       -3.6473635889       -1.7054759699
 H          0.4202923288       -3.8616444598       -2.3782752721
 H          0.2467872455       -3.4091731804       -0.9096799426
 O          1.9109317588       -5.8095528511       -0.9417062940
 H          1.7709794662       -5.0056873870       -0.3910445284
 H          1.1758860134       -6.3958547113       -0.7536466046
 O          8.4725292173       -1.1568383915       -1.3291442430
 H          8.2913204136       -0.2041470344       -1.2698699731
 H          8.0726378540       -1.4498316653       -2.1583465689
 O          3.9359727201       -4.5073700540        2.2907605212
 H          4.1932889130       -5.2264865492        1.6838135807
 H          3.9748215845       -3.7050317619        1.7375440699
 O          4.5043827582       -5.9879909077        0.0929281602
 H          3.6452634738       -6.1212990639       -0.3342734695
 H          5.0125865393       -5.4170368514       -0.5021806754
 O          6.8919763543       -1.3090715165        2.9180398873
 H          6.5989171353       -0.4241141686        3.1764582336
 H          6.3524586072       -1.9327403121        3.4542865596
 O         -3.9122136932        0.5591329745       -1.8011910044
 H         -4.5507535566        0.0295835454       -1.2871330396
 H         -3.9969583619        0.2746865652       -2.7252687528
 O         -5.5632559500        2.6577728443       -1.8665823621
 H         -6.4322340301        2.2853426817       -2.1043673942
 H         -4.9368123099        1.8950930806       -1.8984458527
 O         -6.6319368449       -1.3442546113       -3.0345365139
 H         -6.4283785787       -1.0995411286       -2.1051349499
 H         -6.3746608238       -2.2787665320       -3.0705222917
 O         -2.1039110651        4.4479227122        2.4544083549
 H         -2.9547468361        4.8731123557        2.2693934232
 H         -1.4766428232        4.8188384288        1.8067701778
 O         -4.2851862709       -0.8828393543        5.4579376338
 H         -4.5170213620        0.0162161950        5.0909475743
 H         -3.8732587265       -0.7328521251        6.3085300816
 O          3.0322184184       -1.1523357845        3.6975925067
 H          2.8346467516       -0.5050557285        4.4111526359
 H          3.3437101539       -0.6322919955        2.9346946209
