  189
       -320.70832039
 O         -1.2982918666       -5.4614926035       -1.7510903205
 H         -1.4091614339       -6.3233469724       -2.1528199018
 H         -2.1898658214       -5.1613526670       -1.4927596242
 O         -7.1322386300       -1.4842265044        0.2934272769
 H         -7.9077217814       -1.9211717505        0.6452562239
 H         -6.3437766463       -2.0554674982        0.5346115515
 O          3.3977859904        0.7104602685        3.8423446049
 H          3.6336751010       -0.0978653086        4.3055852997
 H          2.9043074480        1.2773023283        4.4737208518
 O         -2.0091550538       -2.9231056360        0.4307219196
 H         -2.6574603634       -3.4595877631       -0.0718166442
 H         -1.2639021466       -3.5293991542        0.6139579050
 O          4.2080823514        4.2758763824        1.5398065641
 H          4.5263477879        5.1027627096        1.9026679470
 H          3.8856253166        4.4651033475        0.6385247667
 O         -2.2380304590       -0.7931135652       -3.1852671529
 H         -2.0331855108       -0.5653740728       -4.1151333843
 H         -2.9205100987       -0.1648348606       -2.8920549584
 O          0.4149463449       -3.4387116410       -2.6878281097
 H         -0.2757376678       -4.1098367343       -2.6204903460
 H          0.2125560773       -2.8362013222       -3.4208563397
 O          5.5465362275       -3.3744840620       -1.0603581595
 H          4.8167822781       -3.4548394719       -1.6905410532
 H          6.2085919964       -2.7625705774       -1.4109459682
 O         -0.4248349219        0.5872103335        4.6597765163
 H         -1.2879597874        0.1626486483        4.7980794849
 H          0.2180604352       -0.0820580266        4.9940883184
 O          1.8036874938        2.3231762186        5.2732417534
 H          1.7437878411        2.9545115818        4.5395781257
 H          0.9513366724        1.8736296594        5.3157183924
 O         -2.2523735266        4.7977583659       -2.1420714749
 H         -2.1467200439        3.8226069369       -2.0932202289
 H         -1.5691945100        5.1012615063       -2.7491760259
 O         -3.5187811559        2.3791048503       -4.2614636376
 H         -3.9500210014        1.5735349626       -4.5513458748
 H         -3.1402037362        2.1887609352       -3.3812300407
 O         -1.6546410115       -0.0848097618       -5.7129475511
 H         -0.8563970956       -0.6118764847       -5.8249190645
 H         -1.4199549055        0.8333861162       -5.8939987197
 O          2.6674016019        1.7984111120       -3.2573985043
 H          2.9993691324        1.7564160702       -2.3404197002
 H          3.0230866207        1.0123021361       -3.6911281228
 O         -0.1128464842       -4.8006635681        0.6758598932
 H          0.8072200859       -4.4667198665        0.6490578238
 H         -0.3159611907       -5.1602653728       -0.2023022475
 O         -1.9069524333        2.6198327192        3.4358111442
 H         -2.7948968583        2.2562203607        3.5298597426
 H         -1.3196934306        2.0398643466        3.9382227140
 O         -1.5448654163       -0.8032184723        2.0772149615
 H         -1.6068424805        0.0498465205        1.6051136982
 H         -2.0362566666       -1.4557418012        1.5529434443
 O          4.7580299476        1.5416206542        1.7327926092
 H          4.2456884955        1.2186169923        2.5084758640
 H          4.8025048036        2.5019351117        1.8252049170
 O          0.9972521579        0.7853899284        2.2695887685
 H          0.4081936560        0.6931193828        3.0388314315
 H          1.6107312258        0.0219103197        2.3080054020
 O          1.1504725774       -1.4222184856        5.2949198642
 H          0.8155072211       -1.9983883947        4.5819126587
 H          2.1063733619       -1.5211766678        5.2862509336
 O          5.3849013530        0.3373463928       -2.5665900167
 H          6.0559073200       -0.2033533586       -2.1172361499
 H          4.9588482613        0.8800222288       -1.8752713980
 O         -3.8883549685       -3.0148172051        3.2122058495
 H         -3.6199502581       -2.2591748072        3.7610434875
 H         -3.1362978420       -3.6202574713        3.1774511884
 O         -5.3885138204        2.5411393803       -0.9593524938
 H         -5.3912773190        3.2632323932       -1.6318228832
 H         -4.7366616031        2.8280310989       -0.2904771978
 O         -1.9892843771        2.1151455960       -2.0087791914
 H         -1.9110106961        1.8877329568       -1.0658469706
 H         -1.1832817724        1.7766238179       -2.4512528524
 O         -2.4717533654        5.3135196313        0.5068076519
 H         -2.3964642809        5.3021168392       -0.4667857752
 H         -1.5960994462        5.1013573217        0.8581805201
 O         -4.9076665939        4.3452688365       -2.8362360871
 H         -4.6314350203        3.7890886398       -3.5789956980
 H         -4.0922594392        4.7778741931       -2.5361691194
 O         -5.8142424381        0.7593386562        1.1423803202
 H         -5.9152640765        1.4250552077        0.4444014916
 H         -6.4225437515        0.0328621828        0.9190794892
 O         -2.9570171630       -0.5894183009        4.2911976028
 H         -2.4297648863       -0.6663778000        3.4630432083
 H         -3.6098227520        0.1020799461        4.1170686256
 O          3.0118222311        4.4553438271       -3.7331576202
 H          3.6430190356        4.6325749166       -4.4303609912
 H          2.9200440693        3.4831507515       -3.6671758101
 O          2.5261490493       -1.4003896910        1.9539071468
 H          2.9552280772       -1.5648195126        2.8182584525
 H          3.2418594487       -1.1646539204        1.3237877411
 O         -4.9429363194       -2.7694276823        0.7778400227
 H         -4.6640917070       -2.9270200041        1.7062628407
 H         -4.3600787535       -2.0354608311        0.4753043450
 O         -3.6875745171        3.0880940776        1.0440125341
 H         -4.0178667974        3.1031618821        1.9448270686
 H         -3.2811318704        3.9853686117        0.8686530236
 O         -1.6080540619       -4.7684578780        2.9971013119
 H         -1.1457539069       -4.9767776354        2.1653943781
 H         -1.5419450083       -5.5393699956        3.5609963273
 O         -4.5892905469        1.5520403065        3.4230971822
 H         -5.0541672285        1.2321980266        2.6228113399
 H         -5.2666523598        1.8092421914        4.0496783185
 O         -0.4056581260        3.7497739046        1.5069104908
 H          0.4794747030        3.7226880636        1.9347693689
 H         -1.0188420181        3.5305472044        2.2339687515
 O          6.6734431929       -0.3050907397        1.2599660084
 H          6.5539339874       -0.9853400420        1.9491850450
 H          6.1748804593        0.4818371022        1.5494228109
 O          7.2591911892       -1.1774391664       -1.2407220507
 H          7.1476031319       -0.8594335720       -0.3206404424
 H          8.1892863644       -1.0884490322       -1.4493870181
 O          4.3524211553       -1.1379603205        0.0636765521
 H          4.6470239703       -2.0009487339       -0.2724361784
 H          5.1481872146       -0.7213967521        0.4338949783
 O         -6.4618999770       -1.3226895693       -2.3395907503
 H         -7.2475109962       -1.3825058494       -2.8834084533
 H         -6.7519904696       -1.3817853912       -1.4053439554
 O         -1.0451278319        2.7470897376       -5.3207841983
 H         -1.9922464653        2.7753198462       -5.0824745486
 H         -0.6465181622        3.5300649144       -4.8982271926
 O          0.1805912922        4.5005730843       -3.5931500958
 H          0.2840670620        4.1307766377       -2.6966549152
 H          1.0726857114        4.7699965106       -3.8435992381
 O          2.3826018502       -4.2410160244        3.6017436125
 H          2.6813157527       -4.7604912993        2.8533875901
 H          1.6041755637       -3.7410700358        3.3075584945
 O         -4.4217123526        0.4829921300       -2.2544144965
 H         -5.1940940193       -0.0837331854       -2.4048802475
 H         -4.7698482992        1.3024737226       -1.8158577432
 O          0.0496262582        1.2253830957       -3.4798793611
 H          0.9455051330        1.5893847615       -3.3492844912
 H         -0.3288012601        1.7275654837       -4.2416473462
 O         -4.1133761295       -2.7967351873       -3.0393731797
 H         -3.3978230411       -2.1421662936       -3.1456220996
 H         -4.9277368698       -2.3044723227       -2.8694396321
 O         -1.6440129905        1.4826948505        0.6093334797
 H         -0.9595101131        2.1006135154        0.9256727481
 H         -2.4901822868        1.9335012073        0.8374726095
 O          2.3715827901       -3.7018781578        0.6114535370
 H          2.6167323604       -3.4548284715       -0.2961520872
 H          2.2981260088       -2.8612931240        1.1227015819
 O          3.1488891271        4.4568431694       -0.9593377984
 H          2.1915500590        4.2347021900       -0.9239284996
 H          3.2971461783        4.7168990407       -1.8807597978
 O          3.0083446196       -3.0587317663       -2.0689742046
 H          3.1438345389       -2.2388575249       -2.5716829193
 H          2.1471067449       -3.3969141774       -2.3706800299
 O          6.1002797673       -2.4065548018        2.9211233033
 H          6.8273825173       -2.8491807393        3.3593417362
 H          5.6570381444       -3.0985133341        2.3553982948
 O          0.6526023162       -1.2595671574       -4.4020086444
 H          1.6102495370       -1.2395017405       -4.3027696833
 H          0.3353732683       -0.4115915569       -4.0290046519
 O          1.8963881952        3.2881649053        2.6862068498
 H          1.8017273535        2.3243023637        2.5283215651
 H          2.7503889741        3.5706342932        2.3240795541
 O          3.9215198563        1.8473350255       -0.8453437098
 H          4.1310759571        1.5752494031        0.0674915323
 H          3.7975431198        2.8142827633       -0.8177041827
 O         -3.6216026357       -0.5274218173        0.1106947313
 H         -4.2480251679       -0.0113463098        0.6462734383
 H         -3.8020516857       -0.2395010820       -0.8059801054
 O          0.6111140681        3.5955536119       -1.0409894918
 H          0.1435116071        3.8196607427       -0.2228710642
 H          0.7964650329        2.6381894270       -0.9733951962
 O          4.9244322680       -4.2240698562        1.4442131724
 H          3.9781821063       -4.1117057864        1.2283124766
 H          5.3711716805       -4.1675910419        0.5872178053
 O          3.5029902887       -0.9143814948       -3.8094321693
 H          4.2491988564       -0.4831834917       -3.2929694541
 H          3.9159448533       -1.2792250860       -4.5934455655
 O         -3.6980533170       -4.4076431845       -1.0105527107
 H         -4.3991168817       -4.1652967872       -0.3845879048
 H         -3.8777858264       -3.8739984266       -1.8244446750
 O          3.7676123979       -2.0546503594        4.2809869001
 H          3.3727712521       -2.9502363367        4.2113838719
 H          4.6788788028       -2.1392283494        3.9490056925
 O          0.1468865910       -2.6800633387        3.1002788716
 H         -0.5294983653       -3.3656580222        3.2215560756
 H         -0.3243304333       -1.9129964507        2.7344504117
 O          1.1071614788        1.1249971839       -0.5279316322
 H          1.0839757007        1.0051389237        0.4313322618
 H          0.6589340309        0.3222988663       -0.8547430272
 O         -0.0216436462       -1.2818178550       -0.8611928078
 H          0.1386858923       -1.9554855679       -1.5298189735
 H         -0.8775946308       -1.4920821179       -0.4693635247
 O         -8.1614390657        2.0347374327       -0.0356280134
 H         -7.3810038464        2.4044058580       -0.4687336308
 H         -8.1711614738        1.0942104826       -0.2216339660
