  387
       -651.64892676
 H         -3.1429400461       -0.3364509291       -1.0042000081
 C         -2.6970140266       -0.1974191413       -0.0209363926
 H         -2.9173311723        0.8145881506        0.3179792784
 C         -1.1892000353       -0.4147804320       -0.0770563709
 H         -0.9148234927       -0.7456992868       -1.0717520512
 H         -0.9245692628       -1.1801497908        0.6480943252
 O         -3.2556448823       -1.1310740320        0.8961557884
 H         -4.2344198740       -1.1233076815        0.7955981514
 N         -0.4038733726        0.7892528181        0.2445730466
 H         -0.6705976290        1.5920088569       -0.3641195578
 H          0.6023688937        0.5342414019        0.0849979515
 H         -0.4908366008        1.0520191492        1.2552553464
 O          1.9735309872        1.5263114628       -2.1854947260
 H          2.9314844586        1.7167539604       -2.2408123781
 H          1.6514325593        2.1772387566       -1.5255315765
 O          4.4801233421        2.4233902257       -2.2883210131
 H          5.1636405352        2.1768099744       -2.9311027466
 H          4.9691789409        2.4804282976       -1.4405543219
 O          0.4972006202       -4.5457053728        3.7685739355
 H          1.3734783870       -4.4285014394        4.1646022794
 H          0.6466120547       -4.4587381870        2.8014780535
 O          1.2225299032       -2.4705997465       -1.2184800722
 H          0.4083304788       -2.9449893648       -0.9443335999
 H          1.7842922466       -3.1416022118       -1.6268726504
 O          1.4062731475        5.6929784530       -2.0690332649
 H          0.6947498555        5.3470726757       -2.6620314919
 H          2.2352909966        5.4926297665       -2.5522196630
 O         -5.8345450642       -1.5436556707        0.6422793839
 H         -6.3335906852       -0.8364970895        0.1930061767
 H         -6.1271641470       -2.4107126741        0.2823106870
 O          6.8656757168        1.6919159019       -3.4708492274
 H          6.7930023267        1.6438910876       -4.4244945727
 H          6.5666118099        0.8028408362       -3.1290816087
 O         -2.3378511929       -2.3323255268       -2.7797874457
 H         -1.8192117489       -2.8505278587       -2.1398264200
 H         -1.7124317416       -1.8661575358       -3.3513841277
 O          1.4421119798        3.5084468983       -0.5234399692
 H          1.4337142312        4.3287467505       -1.0594285189
 H          0.6200939351        3.5172305513       -0.0017536568
 O         -1.0824647162       -3.7285909101       -0.7730882936
 H         -1.3222990978       -3.5105881031        0.1479670970
 H         -0.9290852117       -4.6820866056       -0.7742591948
 O         -4.8478073887        0.8745090134       -2.0191810863
 H         -5.6380186282        0.3174324092       -1.9456002129
 H         -5.0590588945        1.5943367197       -2.6440788442
 O         -1.1835787016        2.7031354024       -1.5118518328
 H         -1.6278620467        2.0355160211       -2.1077191492
 H         -1.8762492598        3.2678494039       -1.1282029508
 O         -1.7317534694       -5.7521279433        2.5841176475
 H         -1.6167254418       -4.8184632682        2.2585752346
 H         -1.1037835207       -5.8172379426        3.3111168241
 O         -1.6240557254       -3.2516452799        1.8252194435
 H         -0.8228905153       -2.7335420224        2.0937331856
 H         -2.3547425640       -2.8939614280        2.3565129937
 O          6.1575158587       -2.2732592647        0.3413500700
 H          5.4448730474       -2.1956888316       -0.3066293037
 H          6.5898130846       -3.1382486757        0.1910525943
 O         -0.6655383188        3.6484619531        1.0855578765
 H         -1.4925621251        3.2192641824        1.4053998208
 H         -0.7125639309        4.5598511640        1.4102989868
 O         -3.5541204858       -2.8294012372        3.7071152318
 H         -3.8152087264       -3.7526547141        3.7398845812
 H         -2.7362244555       -2.7511460709        4.2628885563
 O          2.8363092463       -2.4108614927        2.1497007033
 H          3.5767563205       -1.7773499457        2.2619348641
 H          3.1091878226       -3.0684936910        1.4753367501
 O         -3.3882909597        4.0116978648        6.3169525193
 H         -4.1618772445        3.4330942414        6.3240819774
 H         -3.4302710610        4.5172723712        5.4978154338
 O          0.2281162559       -0.5633366044       -2.8893736492
 H          0.5879000387       -1.3188231379       -2.3820914878
 H          0.8057024251        0.1860232873       -2.6932887737
 O          7.1514941296       -1.9490256776        4.3487258064
 H          6.6147418779       -2.7213130039        4.0805770657
 H          6.6029865305       -1.4713491215        4.9830442134
 O         -0.3561225528        1.3397230099        2.9009919459
 H         -0.6020493693        2.2226322177        3.2195134094
 H         -1.0875890648        0.7504009836        3.1662460402
 O         -7.3320513049        0.8154167553        4.2069951382
 H         -7.8279118010        0.1652548681        4.7039611499
 H         -6.7310865931        1.2892055087        4.8344655349
 O          3.2532849735       -0.8774423834       -2.9665153799
 H          2.8287489155       -0.3707742762       -2.2661868005
 H          3.7577329921       -1.5919117297       -2.5330619939
 O          5.6196899715       -4.1615716035        3.9619670970
 H          5.8936191759       -4.8409592150        4.5785055594
 H          4.6509290958       -4.0064114625        4.1342948334
 O          1.2497623868        2.6379691342       -4.4833768774
 H          1.4996771543        2.1786390082       -3.6476361598
 H          2.0865669121        2.9079321755       -4.9034558081
 O         -5.8080911840       -6.0561250345       -1.5073246007
 H         -6.1643740294       -5.3352269091       -0.9597283342
 H         -5.8952268676       -5.7403325157       -2.4225186718
 O          4.5926007201       -0.0755575546       -0.4030772508
 H          3.6290391816       -0.1112361626       -0.2373644816
 H          4.9003151965        0.7854322195       -0.0910726268
 O         -4.7274983526        2.5980795667       -0.0182712247
 H         -4.7786702358        1.8823873024       -0.6957584380
 H         -5.6321493237        2.8860669709        0.1816420749
 O         -1.4639383967        0.3892105224        6.5497108382
 H         -0.7653869904       -0.0244556533        6.0152405269
 H         -1.2421546969        1.3431513961        6.5698964228
 O         -5.3491588825        0.8901613007        2.2007002650
 H         -5.9278467733        0.8723654804        1.4182496494
 H         -5.8284154942        0.4277975791        2.9005664136
 O          2.8772420257       -1.5129535393        6.0518008845
 H          3.6395491306       -1.0064077589        5.6681358757
 H          2.9371922593       -1.4315533205        7.0029134315
 O         -0.7738074935       -3.4195461190       -6.1680171011
 H         -0.3980259240       -3.5449107404       -5.2592675320
 H         -0.0674038530       -3.6015422823       -6.7861948753
 O         -0.9486536240        3.8790591717        3.8448356466
 H         -1.8754457606        4.1801160698        3.6933111570
 H         -0.3877235519        4.6449514312        3.7065661784
 O         -8.2059941953       -3.3326712903       -4.0828678310
 H         -7.4249007419       -3.9139817707       -4.0795726002
 H         -7.8980137318       -2.4902509748       -4.4604868431
 O          0.7856598518       -6.4836794985       -2.2042116651
 H          0.4604870094       -6.7243672761       -1.3291799334
 H         -0.0069354658       -6.4072604316       -2.7556714133
 O          6.0438715465       -0.5865354732       -2.5310008394
 H          5.4687017892       -0.3958917425       -1.7523370789
 H          6.8553177816       -1.0036896365       -2.1859661881
 O          1.6057045309        2.0514497335        5.0014824668
 H          1.5114134532        2.5112619306        4.1339686044
 H          0.9976502973        2.4679222802        5.6208918306
 O          3.8255333319        3.7757556050        0.6945182740
 H          4.3459824355        4.3047269936        0.0551877140
 H          2.9303689125        3.6593045347        0.3227970361
 O          2.0181794412       -0.2948025236        0.0860585760
 H          2.0928568187       -0.2596651587        1.0809193807
 H          1.7708256577       -1.2017574996       -0.1735384007
 O         -0.7469245476        6.2634148004        1.9907156578
 H         -0.7797914046        6.5082296774        1.0379237084
 H         -1.5445804124        6.6089872215        2.3938233727
 O          8.3839488803       -1.7314497762       -1.9389119002
 H          8.8914337816       -0.9567350281       -2.2721276636
 H          8.8459401059       -2.0620279115       -1.1522545509
 O         -4.3920535093       -5.4986467798        2.3421146529
 H         -3.4434412761       -5.6886443278        2.5154838186
 H         -4.6950500441       -6.2153671732        1.7801318378
 O         -7.5691773032        2.4936726884       -1.8719174987
 H         -8.1919705488        1.9735994009       -2.4293587213
 H         -6.8774929231        2.7936614964       -2.4825648958
 O          7.3538397484        4.1505293231       -1.9835195436
 H          7.9413617087        3.9355538237       -1.2425765209
 H          7.1854599317        3.3227122407       -2.4505802147
 O          3.6981034938        3.1990891849       -5.5144511845
 H          3.7495512789        3.2267978512       -6.4694902456
 H          4.0442648720        2.3113762365       -5.2462044775
 O         -4.8318255790       -2.7558807310       -2.0251167639
 H         -4.6561054671       -3.1992428670       -1.1740043905
 H         -3.9625549942       -2.4667071412       -2.3581817007
 O         -2.8841425138        2.5679412022        1.9949133172
 H         -2.9071765761        1.7250735615        2.4869058809
 H         -3.6217685427        2.5427284319        1.3674692334
 O         -0.0436687964       -3.6333544898       -3.6430313220
 H         -0.6167930165       -4.3849526343       -3.3943345585
 H          0.8565064842       -3.8791192739       -3.3842583136
 O         -3.5659353158        6.3963095510        1.0750811446
 H         -4.5406465013        6.3227800310        0.9813819790
 H         -3.3102103960        7.2267008287        0.6694406048
 O         -3.1578385391       -4.0606385855       -4.7968540124
 H         -2.5516443280       -3.8975510638       -5.5287920187
 H         -2.9452600808       -3.3827364097       -4.1247811013
 O          0.9127370143       -4.5231162388        1.0971068270
 H          1.8397914724       -4.5153775751        0.8162716755
 H          0.5170658854       -5.3184977498        0.7263841710
 O         -2.6607996907        0.1450249211        3.1960849273
 H         -2.9393262497       -0.4544542940        2.4811850943
 H         -3.1914214346       -0.0429398257        3.9864799794
 O         -5.4796274956        2.9604408712       -3.6054159642
 H         -4.7722441353        3.6174142679       -3.6536414932
 H         -5.4777483446        2.4813613100       -4.4611479534
 O         -8.7609709467       -2.7700155325       -1.5753460846
 H         -9.5412551527       -2.2008910459       -1.5454240493
 H         -8.6649663989       -3.0833817290       -2.5126196065
 O          4.2816408217        2.5241342270        4.6518949607
 H          3.3537230360        2.3453951063        4.8979919626
 H          4.2818401862        3.4239545295        4.2575985913
 O         -5.4520385617        3.3335939337        3.0981511400
 H         -5.3377421444        2.4270219328        2.7012826666
 H         -6.0899197765        3.7935494360        2.5514355649
 O         -6.1895119768        6.1135818245        0.6465977989
 H         -6.5760145502        5.2168540171        0.6248753748
 H         -6.6491340317        6.6244952346       -0.0194462377
 O        -10.4085423222       -0.5684101437       -1.3411152937
 H        -11.3563682372       -0.4380025957       -1.3746235046
 H        -10.1160773572       -0.2946186184       -0.4513203957
 O          7.4799328420        0.0554767629        0.3653829783
 H          7.0731215510       -0.8193334928        0.2082058797
 H          7.4510121476        0.1767602536        1.3396073240
 O         -3.1006098272        4.4759224807       -0.8100824129
 H         -3.1788302825        5.1424511726       -0.1047752180
 H         -3.7557022458        3.7799810466       -0.5585308603
 O          4.3580188435        4.7581061366        3.1421001232
 H          4.0850777042        4.3999231384        2.2681924183
 H          3.7241890264        5.4559920751        3.3291346266
 O         -1.5527662018       -1.0318161687       -5.1344731120
 H         -1.0607904617       -0.2795016172       -5.5186488949
 H         -1.3467347010       -1.8074811637       -5.6802140094
 O         -3.1489812758        4.5405981228       -3.5562826726
 H         -2.2023494855        4.7129087765       -3.7037412999
 H         -3.2450035169        4.5820295352       -2.5881988891
 O          3.6093900587        4.7487916270       -3.2297726641
 H          3.6836399180        4.6080238329       -4.1799275680
 H          3.8556315015        3.8777547109       -2.8382361836
 O          5.0431253893       -0.9845920624        2.4216709455
 H          5.5423994091       -1.4759263205        1.7443472930
 H          4.9329136982       -0.0768310199        2.0883525076
 O         -0.9064839585        6.5316356534       -0.6513411108
 H         -1.4188849031        5.7785945329       -0.9660759013
 H         -0.0567846624        6.4934105611       -1.1076287479
 O         -8.6797623294        2.3757631455        2.5394116538
 H         -9.1603783071        2.9714829956        3.1141850063
 H         -8.1297127454        1.8022171709        3.1290985969
 O         10.3455644337        0.3483497666        2.4981722453
 H         10.2790254217        0.6482173107        1.5565438087
 H         11.1163792376        0.7718190756        2.8741960720
 O          5.5370813454       -5.5244649568        1.5589069357
 H          6.2959817299       -5.3493724548        0.9863094450
 H          5.6678939228       -5.0146217618        2.3769780426
 O          3.0665526398       -3.6894294448        4.4075570011
 H          2.9757230836       -3.0042140737        5.0894934746
 H          2.9223585548       -3.2108473051        3.5460263398
 O         -8.7448843023       -1.6521082086        3.0147080503
 H         -7.7988674757       -1.5369209774        3.2003069201
 H         -8.8677506746       -2.5933343121        2.8724370575
 O          0.2901750926       -1.6193649721        2.4011233562
 H          0.3423694195       -1.1620345799        3.2544751420
 H          1.1897048121       -1.9554650460        2.2415283929
 O         -2.6637309519        2.4152474923       -5.3348154237
 H         -3.4989697140        2.1240255877       -5.7239942415
 H         -2.8598940981        3.2199554245       -4.8301414201
 O         -3.2117731092       -5.9670196731       -1.0638044615
 H         -4.1449059573       -6.2007262039       -1.2754967065
 H         -3.2909435119       -5.0902071094       -0.6399958374
 O          4.9442737997       -0.2514647834        5.0051154260
 H          4.9487231758       -0.5437749819        4.0698934567
 H          4.7715561431        0.6985139731        4.9823759151
 O          1.9377442500        5.9453598164        2.5302015097
 H          2.3555458517        6.2316882593        1.6916042265
 H          1.0229417081        6.2481688929        2.4638676699
 O         -5.7432190521       -4.5245643359       -3.8069392543
 H         -5.0038606039       -4.5821351666       -4.4246713590
 H         -5.4585134061       -3.8462580336       -3.1557318477
 O         -1.2281645674       -2.7907115038        4.9002233640
 H         -0.7271977602       -1.9703455237        4.9602783617
 H         -0.6186285466       -3.4497476090        4.5032322950
 O          6.0838062843        2.2654683738       -0.1859201625
 H          6.6952224277        1.5137970350       -0.0824915435
 H          6.2402023824        2.8585087814        0.5673629937
 O          1.6550482063       -1.7516701646       -4.9497298306
 H          2.2465158464       -1.4426472348       -4.2311052600
 H          0.7641686849       -1.6271424929       -4.5921586990
 O          0.5892436429       -0.5174519722        4.9478722776
 H          1.3531357435       -0.9783124280        5.3370729152
 H          0.9136368486        0.3968110204        4.8137474503
 O         -5.4620326166        2.1228699390        5.5560607505
 H         -4.8100347147        1.3937299615        5.5624342319
 H         -5.3228528877        2.6318452724        4.7387130408
 O         -3.8314540234       -0.0552482855        5.5958014240
 H         -2.9398044211        0.1399763620        6.0082763683
 H         -4.1391787982       -0.8622703748        6.0070513209
 O          3.5402627442       -4.2688261137        0.4190866398
 H          4.2288799264       -4.8396386294        0.8363920840
 H          3.9490893043       -3.8497797069       -0.3531199134
 O         -7.2273532329        3.6173591259        0.5729377212
 H         -7.7828315203        3.1420856311        1.2197325199
 H         -7.5425113384        3.3475440323       -0.3088307605
 O          2.4492147122       -4.4569309850       -2.7543058888
 H          2.0423481180       -5.3213712532       -2.5481944663
 H          2.7885766837       -4.4719884313       -3.6833141650
 O         -3.8928557035       -3.7424908839        0.2658675364
 H         -4.1988086764       -4.1995292881        1.0645787517
 H         -3.4310043500       -2.9335639698        0.5407396975
 O         -9.0402225250        0.8554466294       -3.3498437455
 H         -8.5236024214        0.2952068255       -3.9403800631
 H         -9.5114550943        0.2689988007       -2.7375388219
 O         -0.4340623903        4.3908640490       -3.4077700634
 H         -0.6512753746        3.7641212334       -2.6741238986
 H          0.1241846011        3.8533060860       -4.0040288703
 O         -6.9646389418       -4.2178975850        2.6211049644
 H         -6.6329514677       -3.3554321634        2.9467025240
 H         -6.2258393482       -4.8268192996        2.7241193540
 O          1.6621440958        3.2569695032        2.6155575991
 H          1.8829547677        4.2064263022        2.6416703861
 H          0.8592867378        3.1996432483        2.0767221341
 O          4.5095945172        1.6211661375        2.0904231389
 H          4.2972255875        2.3799097469        1.5120772836
 H          4.5824028884        1.9771115009        2.9914735638
 O          7.3928573085       -4.5602268355       -0.2903559077
 H          7.2502611571       -4.6105121234       -1.2439279192
 H          8.2802486307       -4.1791854517       -0.1562203094
 O          5.1454383900        5.3518230223       -1.0295113850
 H          4.6650905152        5.3922946294       -1.8696776605
 H          6.0157055239        4.9713884330       -1.2770208777
 O          4.5072468000       -3.0261139065       -1.8371886681
 H          5.3612402234       -3.2974371213       -2.2407332798
 H          3.8314867699       -3.6150325111       -2.2250241770
 O          9.4985254345       -2.2955858831        2.6904699455
 H          9.8850392515       -1.4057770992        2.7040747888
 H          8.7544750421       -2.2930288096        3.3054148438
 O          5.4527156428       -2.0922939577       -4.7409754339
 H          5.5699254776       -1.5531326156       -3.9324803312
 H          5.3122596363       -1.4564157951       -5.4455631967
 O          8.8950161860        3.7607909409        0.3166291181
 H          8.1396425937        3.8397358107        0.9434339200
 H          9.4481339250        4.5293314611        0.4545676097
 O          9.5910404526       -3.0396341765        0.1634306548
 H          9.4855285319       -2.7665243092        1.1074294917
 H         10.5002522826       -3.3236892017        0.0696744401
 O         -3.3526842003        4.9603648887        3.5084682728
 H         -4.0296487587        4.2689843415        3.3551339093
 H         -3.3816349173        5.4972442820        2.7065226184
 O          9.8252672991        1.1984183077        0.0262970096
 H          8.9755265279        0.7018340825        0.0633500060
 H          9.5764301249        2.1343298946        0.1276577629
 O          2.3454213849        0.1564925596       -6.6857962007
 H          1.5343716340        0.6585028018       -6.8186406247
 H          2.0571233051       -0.6361896574       -6.1875070051
 O         -7.1037943676        0.7375972086        0.1275241535
 H         -7.9933548920        0.4843563382        0.4370014322
 H         -7.2348302269        1.2808075666       -0.6720131796
 O          6.7792835925        3.8880311411        1.9249923024
 H          6.1397586287        4.5750586052        2.1408763848
 H          6.9531706223        3.4314474623        2.7871767382
 O          7.6600742605        0.3155253750        2.9936448954
 H          8.6293472343        0.3786893919        2.9971984565
 H          7.4208617337       -0.5289707614        3.4281749431
 O         -1.6867054196       -5.7279065964       -3.2484773553
 H         -2.2842634150       -5.3746648412       -3.9328996259
 H         -2.2584941072       -5.8557650747       -2.4623112591
 O         -6.8266920460       -3.9065012864       -0.0540712433
 H         -7.6391737968       -3.6548886466       -0.5234043984
 H         -7.0592368158       -4.1314461667        0.8687405235
 O         -6.9899266599       -0.8910094010       -4.6051484044
 H         -6.0928846963       -1.1065581362       -4.8833808469
 H         -6.9210123325       -0.8644750970       -3.6199933313
 O         -9.5107755080        0.1287343822        1.1521294384
 H         -9.4983983839        0.9645326888        1.6433326687
 H         -9.3102085391       -0.5691147813        1.8126935996
 O          4.3531676719        0.6913824584       -4.9793139974
 H          4.0458990700        0.2270548439       -4.1792989307
 H          3.6937287134        0.4632402094       -5.6686452211
 O         -0.8223895166        3.0000950238        6.3652665692
 H         -1.6235333957        3.3852023201        6.7504107287
 H         -0.8778503941        3.2798508586        5.4286636935
 O          6.8579458391       -3.7160731933       -2.9301018301
 H          7.4976165112       -3.0184990618       -2.6818095299
 H          6.6184874407       -3.5379067188       -3.8464433435
 O          3.3393115150       -3.8795867804       -5.1382898204
 H          2.6548145447       -3.2019514932       -5.2789594514
 H          4.1638531780       -3.3770719950       -5.0320084638
 O          7.0820761018        2.6339210061        4.2181790253
 H          6.2176097680        2.6216678996        4.6428946361
 H          7.2344656618        1.7386783117        3.8574378021
 O          2.9419327130        6.6698416039        0.1408660699
 H          3.8383596759        6.4163659614       -0.1155918160
 H          2.3821831646        6.4951029398       -0.6243064686
 O         -5.1907350261        1.3760095293       -5.7366420793
 H         -4.8178639071        0.5829054834       -5.2590507365
 H         -5.9989345301        1.0770664614       -6.1552041535
 O         -0.2998988671        1.1653518295       -6.0916191105
 H          0.2697562728        1.6510750128       -5.4594107972
 H         -1.1114796225        1.6870390528       -6.1371772361
 O         -4.1566850119       -0.6226450708       -4.3916254165
 H         -4.0428578447       -0.2242037299       -3.5125766314
 H         -3.2511892909       -0.8166763835       -4.7033273442
 O         -5.9997625959       -1.7522212061        3.2502170675
 H         -5.1066375524       -1.9746208173        3.5615964692
 H         -5.8977180210       -1.5992813527        2.2797852837
 O         -2.1084330128        0.9242604182       -3.1136599926
 H         -2.2484350763        1.3585031110       -3.9749345061
 H         -1.3628158665        0.3120745890       -3.2190359247
 O          9.4160031634        0.6058552706       -2.6652754903
 H          9.7485620070        0.9328203707       -1.8130789418
 H          8.6643229038        1.1628097130       -2.9141441721
 O         -6.7886975042       -1.0285116251       -1.9843465599
 H         -6.0409074425       -1.6713478108       -1.9943354908
 H         -7.5709808913       -1.5720004008       -1.7480386678
 O          2.2217194553        0.3045253096        2.5873240076
 H          1.4184812283        0.8156630601        2.7534163756
 H          2.9567243366        0.9302645273        2.4708736613
 O         -0.8512613686       -6.5007110600        0.1076285291
 H         -1.6934074410       -6.5740583893       -0.3746800898
 H         -1.1203907969       -6.4574708416        1.0435836335
