  459
       -779.13430714
 O          0.3616908162       -3.2129970383       -5.2816660149
 H          0.9630967647       -3.1363643852       -4.5314750986
 H          0.0555574036       -2.3154059628       -5.4946636664
 O          3.3801256996        0.9325583709       -1.7067043656
 H          3.4748446704        1.5552485129       -2.4458455184
 H          4.2270527084        0.4321334666       -1.7319263728
 O         -4.6441997161       -3.1551677818       -1.2280391470
 H         -3.9609847978       -3.6651293667       -0.7396565714
 H         -4.1283824288       -2.6116121033       -1.8620655741
 O         -2.5366585752       -4.0689442742        0.1313104738
 H         -1.8725262368       -4.0168900212       -0.5784090683
 H         -2.5071499748       -4.9698880561        0.5028427691
 O         -1.2866689586       -0.0187790388        5.0654963112
 H         -1.4423490476        0.9376978493        5.1243123801
 H         -2.0358775657       -0.4357134781        5.5451967701
 O         -0.4620023819        2.0672501059        2.9322993953
 H         -1.2427242203        1.4769996942        2.9425686382
 H         -0.8179585531        2.9356748985        2.6686111730
 O          1.8685206971       -3.2078366842        1.4659325842
 H          2.3673792147       -2.6899221728        0.7927396352
 H          1.7278579543       -2.6037317523        2.2215186688
 O          1.6070225834        1.5198977040       -4.4482458868
 H          2.5400463754        1.7443339179       -4.5147918661
 H          1.1508912993        2.0335673817       -5.1402492111
 O          2.8016800507        4.2923167300       -1.4389670535
 H          3.0642250025        5.0975620861       -0.9435854060
 H          3.6486140952        3.8050139974       -1.5038145978
 O          0.7676180868       -1.5902661117        5.8479214599
 H          0.3849482095       -2.4850964832        5.9235964778
 H          0.0242732951       -1.0033246879        5.6130073010
 O         -0.5181127421        0.0577046304       -3.2232487962
 H         -0.7732148951        1.0005240690       -3.2060134806
 H         -0.8633258944       -0.3274455837       -2.3971742539
 O         -1.4532231011        2.5389538453       -3.5244171748
 H         -1.7249765134        2.2658809973       -4.4173922253
 H         -0.9327267022        3.3523410819       -3.6683946083
 O          3.1148193423        2.3013181091        0.6223650000
 H          3.1851136291        1.9125457347       -0.2728614503
 H          2.3423359701        2.9016164526        0.6367418806
 O          1.0166640674        3.9409617720        0.8504205973
 H          1.3977967635        4.8455628210        0.9309235656
 H          0.4405234667        3.9681883524        0.0561753445
 O         -2.7518626532        0.7918591983        2.5617462636
 H         -3.1201853374       -0.0060957078        2.9867537671
 H         -3.4413111753        1.4817124819        2.6399763326
 O         -4.0736321488       -1.3081502891        3.5910357658
 H         -4.8950317437       -0.8486136831        3.3100114437
 H         -3.9948690063       -2.0879330252        3.0322381390
 O         -0.9049014101        3.8526456255       -0.9539135173
 H         -1.5400006634        3.2167301541       -0.5845012356
 H         -0.4093627214        3.3547490958       -1.6286474977
 O          1.0083122568        2.3637841710       -2.0016410824
 H          1.1799625905        2.0072926707       -2.9003845694
 H          1.6674252128        3.0571978122       -1.8391321424
 O         -2.1853117245        1.6747905292        0.0771758269
 H         -2.5169411517        1.2335994973        0.8817597331
 H         -2.6038913238        1.2686762625       -0.7132922752
 O         -4.5522950696        2.6807816351        2.2498197364
 H         -5.3653960529        2.3948857740        1.7931274250
 H         -4.0588907921        3.1932595485        1.5651681608
 O          5.6310283298       -0.2774856093       -2.2983458260
 H          5.8174215676       -0.9383803797       -1.5946638377
 H          5.5144542972       -0.8102696814       -3.1074202640
 O         -0.2560203127        4.7666911493       -4.2961610902
 H          0.4826314627        5.3224428717       -4.0109790827
 H         -1.0723951252        5.3251637085       -4.3106586220
 O          3.4275562808        1.8841509570       -6.9498583704
 H          3.2733070959        2.7536865696       -6.5526047231
 H          4.2641396787        1.5599513013       -6.5806809616
 O          4.3634819635       -2.9825939608       -2.3442043133
 H          4.1714527286       -3.3946116304       -3.2034551960
 H          4.9992716973       -3.5722325849       -1.9115639647
 O         -2.6462465888       -3.4056208968        7.5026930697
 H         -2.7673491257       -3.2771826769        8.4423898724
 H         -2.8942109294       -2.5553307486        7.0638252851
 O         -1.3682412676        4.4665071203        2.0500874505
 H         -0.4928523450        4.4735790972        1.6252397822
 H         -2.0505594704        4.2813254392        1.3692233085
 O         -3.3241698253        0.6992135824       -2.0751105675
 H         -3.5099064922        1.1164422934       -2.9276269803
 H         -3.1259473638       -0.2382211806       -2.2481002686
 O          3.1221950268       -1.7225345776       -0.3343700461
 H          3.5976296473       -2.1480981072       -1.0701779518
 H          3.7533245538       -1.1272281950        0.1051924983
 O          0.3757950582        3.1274531951       -6.2832442962
 H          1.1311563745        3.4793353791       -6.7589459908
 H          0.1388112606        3.8122434125       -5.6162134711
 O         -2.8333196370       -6.6486977788        0.9310168774
 H         -2.4498651458       -7.0256121832        0.1323911613
 H         -3.7933578533       -6.5811864097        0.8093172202
 O         -3.4564150412        4.2003810042        0.4672425826
 H         -4.0901037448        4.9318443123        0.6102957200
 H         -3.4983335249        3.9643060082       -0.4939552414
 O          1.9816931639        1.0455138828        3.4358368062
 H          1.0921648155        1.4137652225        3.3104233816
 H          2.1338556535        0.9608736247        4.4062353122
 O          2.8284960714       -5.0946829570       -0.7255805528
 H          3.3938694610       -4.4864925427       -0.1942904575
 H          1.9833633982       -5.2102586176       -0.2477624421
 O          7.4403374802       -0.6349267684        1.5319058886
 H          7.0088937022       -0.2792874976        2.3292697800
 H          7.9946884880       -1.3871320442        1.8043515159
 O          3.1990439745        3.1768643786        5.4714184666
 H          3.7870100412        2.8124778402        4.7799247648
 H          3.0468754998        2.4395553514        6.0735378098
 O         -6.0943378339       -0.0019225105        2.5398592049
 H         -6.2890251003        0.8330244330        3.0066655011
 H         -6.8786547503       -0.5782834241        2.6531499874
 O          9.1019726351       -3.3526384758       -2.8815890634
 H          9.1059394556       -2.4505722006       -3.2302891646
 H          8.4314365680       -3.8089050214       -3.4081884403
 O          2.0815593986       -1.6177196381        3.5328034405
 H          2.0291509510       -0.6569451311        3.3737950816
 H          1.6616694207       -1.7645043871        4.4064469085
 O          4.0316082044       -4.4472324076       -4.6383170647
 H          3.3120361382       -4.0378084983       -5.1252836031
 H          3.7104213549       -5.2661085175       -4.2045618169
 O         -2.4820033468        6.9392267753        1.2522306270
 H         -2.0418398881        6.2377957182        1.7556771398
 H         -3.4241888194        6.8746583257        1.4408517086
 O         -5.4381366094       -5.8051420756        0.6329452168
 H         -5.7122597749       -5.6525089671       -0.2866923925
 H         -6.2560996035       -5.7833309908        1.1575479295
 O         -0.9927547731       -1.6917144244        2.9488384254
 H         -1.6651382733       -1.4656871793        2.2851551075
 H         -1.1053867848       -1.0684552326        3.6885179290
 O         -0.7623714658       -6.0021291119        2.6210699503
 H         -1.3615893758       -6.7423275866        2.5070201156
 H         -0.1621337002       -6.1658140160        3.4041160839
 O          5.2696128224       -5.9006874942        2.3078815381
 H          5.1959847854       -6.6250368120        1.6786829168
 H          4.3750474873       -5.7554799270        2.6961449868
 O         -4.8448772787       -0.0697745111        0.1765131738
 H         -5.3781128591        0.0299738933        0.9927575467
 H         -4.6487578038        0.8093676439       -0.1595157586
 O          4.6862848011        6.3195762586       -2.9400324172
 H          5.4443982794        5.7328263551       -3.0543026947
 H          4.6213697475        6.4873246863       -1.9895066014
 O          4.0739706334        6.2866956476       -0.1965910992
 H          3.3671402767        6.6445754221        0.3605444296
 H          4.6275833117        5.7292982149        0.3738638270
 O          2.5896433094        0.4770778796        5.9767952225
 H          1.9472591201       -0.2206463360        6.1759540391
 H          3.4447035491        0.0121309839        5.9317027435
 O          7.2757890530        1.8934953147       -2.8649298015
 H          8.0027001587        1.9487772089       -2.2040445195
 H          6.7127703633        1.1341311124       -2.6047036770
 O         -1.5604841169       -4.8436531340       -4.5401970375
 H         -2.3014771205       -4.9447043469       -5.1378236230
 H         -0.9250559835       -4.2096565137       -4.9505987213
 O          6.9358596193        4.4483284226        2.9611370953
 H          7.1024008414        5.3726699339        3.1434609512
 H          6.1102390070        4.4132664437        2.4339319954
 O         -2.1972490339        6.2316443595       -1.3359902161
 H         -1.8335834179        5.3297222071       -1.2353381735
 H         -2.2856208062        6.5928755348       -0.4280113427
 O         -0.5837076938       -0.6500354437       -5.7302535408
 H         -0.5093959090       -0.3974994458       -4.7753626928
 H          0.2589869646       -0.3860933845       -6.1491816896
 O          4.6543989976        4.2580223717        1.5670891099
 H          4.0337392131        4.6939886179        2.1955217551
 H          4.1442253986        3.5953268171        1.0512285341
 O         -6.6582286689        2.1492692270        0.6818228958
 H         -6.4471395095        2.3732766337       -0.2443768469
 H         -7.2640041087        1.3878028677        0.6514719419
 O         -4.2717259324       -4.3244578261        5.4119673173
 H         -3.8614383435       -4.2009512770        6.2764730164
 H         -3.5498899668       -4.2436504186        4.7740525296
 O          8.3390107005       -0.5514135583       -1.2886837854
 H          7.8276269695       -1.3316496842       -1.0238654332
 H          8.4186203825       -0.6009921659       -2.2582209010
 O          8.6358560831       -2.9515541253        2.1602088853
 H          7.8865142159       -3.3620861286        2.6426448834
 H          8.6485503871       -3.3554316221        1.2780456967
 O         -1.9857959408        2.5753722537        5.5950787957
 H         -1.9623944246        3.4881814321        5.1938488402
 H         -1.5679607618        2.6746421989        6.4508239625
 O         -2.5179279115        6.0684160689       -4.1047218886
 H         -2.5116465231        6.2843382494       -3.1606510367
 H         -3.3401875140        5.5876242888       -4.2687023205
 O         -5.2834203787        6.0555233600        1.0978172674
 H         -5.5000816517        6.3490970829        0.2054435159
 H         -6.0221823853        5.4756957314        1.3696103555
 O          0.4684207860        7.0603066420       -1.3451687115
 H          0.9524689882        6.7903696797       -2.1385759855
 H         -0.4742614495        6.8830664463       -1.4942531392
 O          6.3112926220        0.3425122659        3.7775199818
 H          6.9041192807        1.0055712158        4.2045213708
 H          5.5595554590        0.8964809301        3.4773531297
 O         -7.1261348163        4.5603387372       -0.6372468084
 H         -7.7812384989        4.2411376530       -1.2601729447
 H         -6.4098657318        4.9685210305       -1.1486023895
 O        -10.2288650512        2.1397056649        0.3575066289
 H         -9.6861745639        1.9815934381        1.1495284378
 H        -10.6473978980        1.2783253326        0.2049772946
 O         -6.3563240656       -5.0825873279       -1.8761567983
 H         -6.2648881111       -5.3663523250       -2.7857568142
 H         -5.7286555942       -4.3293380744       -1.7722685627
 O         -4.8135720203        4.7784475441        3.9096294406
 H         -5.2802586517        5.4546123237        3.4173050346
 H         -4.7502105156        3.9990016599        3.3110712209
 O         -1.0681421073       -3.6521674331       -2.1002885028
 H         -0.0980779136       -3.5571312927       -2.1714551540
 H         -1.3484048845       -4.2033046718       -2.8492160210
 O          4.6613756082       -3.8242066164        0.7437437867
 H          4.4693716935       -3.1777631096        1.4607340106
 H          5.0405401720       -4.5994446652        1.1997042732
 O         -4.6925390441        2.6182398319        5.6369228368
 H         -3.7292390228        2.4537079729        5.5769869395
 H         -4.7912012598        3.5691044502        5.5083717216
 O         -7.8810125108       -0.1681465870       -0.0297105243
 H         -7.3170785492       -0.9281009467        0.2029202459
 H         -7.8579367595       -0.0459713833       -0.9916321042
 O         -2.8226387641       -1.5637154670        0.9829099782
 H         -2.8765053529       -2.5116421346        0.7633979103
 H         -3.6311862062       -1.1112096228        0.6721616148
 O         -6.3741975264       -2.3611124444        0.5644178575
 H         -5.7084783558       -2.5772870797       -0.1313487921
 H         -5.9698025252       -2.6497348789        1.3878687091
 O          6.6707313692       -4.1263234259       -4.0569126474
 H          5.9556203531       -4.5204935690       -4.5728580248
 H          6.4943472755       -4.4138267080       -3.1396730119
 O          3.6892498715       -3.4492409955        5.2720773103
 H          4.0058381926       -2.5248858023        5.3063974927
 H          4.0929967782       -3.8984698848        6.0134271696
 O          4.5585554946       -2.0777886621        2.7259950644
 H          4.6909475320       -1.2324883126        2.2586424529
 H          3.6904340614       -1.9976124720        3.1740140612
 O          1.9600311617       -0.9331487206       -3.0021659471
 H          1.1368819785       -0.4477577296       -3.2063965227
 H          2.4985232917       -0.3257898560       -2.4528249946
 O         -3.5010118850       -5.7031801534       -2.1488194007
 H         -3.9913277308       -6.5234654990       -2.1713178519
 H         -2.5775817989       -5.9385161579       -1.9091460305
 O         -7.3959626329        3.1992514082       -3.8516230186
 H         -8.1845690702        3.2241474892       -3.2916758888
 H         -7.4828841588        2.4220650830       -4.4257774684
 O          3.2051726304        5.3168938314        3.4871820373
 H          3.2394961061        4.8135522580        4.3078993286
 H          2.3075971560        5.6805226617        3.4219290077
 O         -3.3674564136       -1.2274945296        6.1777306440
 H         -4.0734671339       -0.6776465182        6.6007319912
 H         -3.7187076266       -1.4526847765        5.2952626058
 O         -5.3177062640        0.2848707871        7.0588921326
 H         -5.1501286371        1.1797881811        6.7321406423
 H         -6.1603121741        0.0153935455        6.6544257581
 O         -8.9301789760        1.1641916436        2.5081928240
 H         -8.3271509683        1.5867326878        3.1288671082
 H         -8.9716033619        0.2310203769        2.7341013983
 O          1.6367891696        6.4868251915        0.9639335613
 H          1.1544687239        6.8099067391        0.1692409048
 H          1.1257549390        6.7176885230        1.7480863396
 O         -7.5690925903       -0.0557169863        5.5256539332
 H         -7.8735124141       -0.6764096660        4.8508619719
 H         -7.5118135012        0.8107950695        5.1075962508
 O          2.0587395354        5.9053826563       -3.4059129948
 H          2.9043399346        6.3817832064       -3.4602526833
 H          2.2539391098        5.2170897509       -2.7278323854
 O          8.2323950339        2.7548251684        1.3182534076
 H          8.7361366041        2.1189677453        1.8754181609
 H          7.8412632290        3.4010288578        1.9326356861
 O          3.0921837141       -1.8304167512       -5.2268434211
 H          2.6929911048       -1.2917669025       -5.9257591223
 H          2.7250672120       -1.4760116691       -4.3880720606
 O          6.9686988476        4.5869678029       -3.1982348581
 H          7.4344406602        4.7740633356       -4.0118479581
 H          6.9872764863        3.6178990805       -3.0650734677
 O         -5.8583273894        2.1096016086       -1.9069274341
 H         -6.3526916569        2.5667045123       -2.6107809768
 H         -5.8251637394        1.1677984223       -2.1456442364
 O          7.8363523770        2.3322452724        4.6102117920
 H          7.4842012437        3.1239437383        4.1790151115
 H          8.6993724314        2.1519798586        4.2211815005
 O          3.2614633829       -6.5036275091       -3.0924227867
 H          3.1742278334       -5.9837129490       -2.2776335252
 H          2.3563989513       -6.7231666644       -3.3500046435
 O         -2.2023080827        4.9809152178        4.5824528548
 H         -1.7816816567        4.9012187583        3.7122200107
 H         -3.1598006789        5.0358474674        4.4083273222
 O          8.7857433987       -1.1119095069        4.2814710428
 H          7.8517451108       -0.8761710914        4.2168585191
 H          8.9372206700       -1.8420995105        3.6669617211
 O         -0.5690500855       -3.9563776051        5.7987112792
 H         -1.1752177131       -3.9086552328        6.5550808075
 H         -1.1500855235       -3.9420782073        5.0155470428
 O          6.5497198435        1.2680785815       -0.1116427463
 H          7.1607451813        0.6045518165       -0.4784800582
 H          7.0905241031        1.7881021262        0.5153384990
 O         -5.8241777731       -0.6168168317       -2.2868928529
 H         -6.5218412874       -1.3003111511       -2.3153536023
 H         -5.3737584423       -0.6715152802       -1.4255984696
 O          8.3571174871       -0.9170910960       -3.9760136404
 H          8.5570548052       -0.1611846842       -4.5504070363
 H          7.4661600508       -1.2027226975       -4.2212250399
 O        -10.5070729115       -0.6053493123       -0.0403366532
 H        -10.6601558066       -0.7827352895       -0.9691385235
 H         -9.5390851209       -0.4389488441        0.0547698562
 O         -7.9205208386       -2.2512125023       -2.5906501947
 H         -8.5589292932       -1.5306164897       -2.6284776779
 H         -8.1772372681       -2.8435263905       -1.8446826642
 O          0.3729875208       -5.0800770681        0.4069940904
 H         -0.0034789173       -5.5311283741        1.1883944574
 H          0.7373163621       -4.2525349077        0.7815091476
 O          5.6769179237       -1.6500531735       -4.6334328263
 H          6.0178023590       -2.5488601488       -4.4386831534
 H          4.7370294002       -1.7932457150       -4.8989493712
 O         -4.1513520024        1.8129340936       -4.5353503632
 H         -3.4636410898        1.8676651754       -5.2164889438
 H         -4.7090747335        1.0710111353       -4.7947069840
 O          0.5333989074        6.0682107209        3.5261290512
 H          0.0885331144        6.7161711840        4.0716943398
 H          0.4626265458        5.2177691399        4.0273164582
 O         -4.9378914677        4.5189469868       -4.2702901943
 H         -5.8890748692        4.3946117548       -4.3533739716
 H         -4.5681997454        3.6205470674       -4.2689156412
 O         -5.3390486378       -0.6902574477       -4.8721862247
 H         -5.8379134046       -1.5362080025       -5.0579702314
 H         -5.3073106072       -0.6746669696       -3.8876002492
 O          0.6023113801        3.7862366621        4.8803305801
 H          1.5226463162        3.5670492888        5.1124610838
 H          0.2502414640        3.0561032298        4.3521939170
 O          5.1993542429        3.1877837327       -1.3572845886
 H          5.5907952870        2.3921164346       -0.9438839326
 H          5.7251369124        3.9314157673       -1.0040162005
 O          9.6686496358        1.0490946507        2.7830008700
 H         10.0408912158        0.6457937334        1.9777036990
 H          9.4321079427        0.3017467575        3.3651134116
 O         -4.9879650269        5.8864921740       -1.8053951865
 H         -4.0497073596        6.0351173313       -1.6035244659
 H         -4.9732264725        5.4224101990       -2.6596070700
 O         -3.5363575477        3.5370745128       -2.0291964226
 H         -4.3137406929        2.9547236629       -2.0514186893
 H         -2.8234288854        3.1165703597       -2.5364780575
 O         -6.4016517993       -3.6057908117        3.9107269434
 H         -5.9678175558       -3.8630625982        4.7383172489
 H         -5.6582074122       -3.6244604387        3.2684285900
 O         -7.5891533831        0.7232624852       -5.0486610053
 H         -8.0682107854        0.4185765028       -5.8188976496
 H         -6.7375018864        0.2206584326       -5.0308017777
 O         -8.0900357205       -1.6155298823        3.2090359153
 H         -7.5399663059       -2.3450973417        3.5559485235
 H         -8.7742975443       -2.0510435210        2.6523277962
 O         -9.8817247231       -2.7740218709        1.5962831832
 H         -9.4671056415       -3.2550895755        0.8630171331
 H        -10.3619993458       -2.0413425691        1.1808517616
 O         -9.4154973898        3.0073909243       -1.9441256133
 H        -10.1951342217        3.4875657301       -2.2249115419
 H         -9.6192151180        2.7246007807       -1.0056003117
 O         -6.6965692583       -2.8936563066       -4.9623537068
 H         -7.2228345416       -2.7974012365       -4.1502451569
 H         -5.9954569926       -3.5378377873       -4.7564586555
 O          1.7619865885       -0.1574804795       -6.9924371291
 H          1.7423829137       -0.3924048112       -7.9194721340
 H          2.3164626698        0.6591452414       -6.9268890155
 O          0.5841337602       -6.0846394430       -3.4588933718
 H         -0.1550320092       -5.9134884500       -4.0610516275
 H          0.9219095679       -5.2066723778       -3.2204430116
 O          2.9440096222        4.1347016881       -5.4122827123
 H          3.5173623649        3.7005422340       -4.7561169204
 H          2.5711879409        4.8961416081       -4.9463038900
 O          4.4127744762        2.1039510990        3.3063542540
 H          4.6041721179        2.8128400085        2.6748404232
 H          3.5218698011        1.7515729310        3.1119916885
 O          2.9361073604       -4.9947900580        3.2188576381
 H          2.5499175782       -4.4070105178        2.5378747311
 H          3.2182786207       -4.4007900906        3.9439632396
 O          9.3067219808        2.2717500423       -1.1606200196
 H          8.9919573448        2.5239049232       -0.2772029144
 H          9.9233997322        1.5517141645       -0.9998431682
 O          6.2831822525       -2.0060948071       -0.3847131643
 H          5.7176972567       -2.7356808241       -0.0737718409
 H          6.5546617316       -1.4971367688        0.4092679819
 O          0.8496876390       -6.0803967741        4.6324278791
 H          1.6564097789       -5.7445511455        4.1966951978
 H          0.5152304683       -5.3625878891        5.1944964090
 O          4.8516179138       -1.0143412598        5.6010138332
 H          5.5665830165       -1.5065386670        6.0471848819
 H          5.3094702928       -0.5433609863        4.8763422992
 O         -1.0926464646       -6.5422237889       -1.3583492753
 H         -0.6127574117       -5.9690644446       -0.7330572134
 H         -0.4945631658       -6.6076394289       -2.1232642718
 O          6.2024322389       -4.8438977261       -1.4781467682
 H          5.8191567263       -5.6189070406       -1.0343040737
 H          6.9611578073       -4.5447668607       -0.9489188397
 O          4.7929809121       -6.9347057484       -0.3227807226
 H          4.7306461663       -7.5911974231       -1.0183574967
 H          3.9940416212       -6.3752775278       -0.4084904376
 O          1.5484859978       -3.5528270755       -2.6132064273
 H          1.8219429275       -2.6133760831       -2.6472993170
 H          2.1323469587       -3.9674220056       -1.9509931928
 O          4.5557823678        0.0583738597        1.1396105028
 H          3.9531540751        0.8116239741        1.1989539439
 H          5.3664191754        0.4127367599        0.7142884062
 O         10.3903804610       -0.0771598490        0.3721890021
 H          9.5797482802       -0.3003825508       -0.1323629350
 H         10.8664589642       -0.8982058226        0.4944551889
 O         -2.1709170061       -3.9567687373        3.5238800240
 H         -1.6694072420       -4.6979384532        3.1175506588
 H         -1.6838377589       -3.1252672244        3.2837501568
 O         -4.4515294846       -3.7252244316        2.0995334348
 H         -3.6190550940       -3.9674405726        2.5562829936
 H         -4.6942798437       -4.4942153337        1.5470404503
 O         -8.7984684323        0.3604996188       -2.5971350785
 H         -9.0961236612        1.2502884370       -2.3487545041
 H         -8.3566595563        0.4619399201       -3.4575113751
 O         -8.3482668778       -3.7714631002       -0.4823316745
 H         -7.9357457049       -4.5696535686       -0.8378556235
 H         -7.6324832593       -3.3253401588        0.0309596422
 O         -7.1785964383        4.3127381228        2.1531728817
 H         -7.0706701472        3.6234845932        1.4558671557
 H         -8.0511171062        4.6793244861        2.0126538568
 O          8.3451050235        1.5143160829       -5.2137323852
 H          9.1143579485        2.0619813218       -5.3628356779
 H          7.9894983842        1.7325869411       -4.3098878089
 O          6.9886922430        4.9518973040       -0.4208514274
 H          7.2750406825        5.1299792289       -1.3257779527
 H          7.6528089527        4.3867581836       -0.0160902786
 O          5.6578907842        0.9536957259       -5.5600027227
 H          5.6560918358        0.0112327579       -5.3257013831
 H          6.5840245078        1.1936543660       -5.7003940638
 O          6.9597819113       -2.6232315065        6.0640145611
 H          7.8133089429       -2.1900793124        5.9654326019
 H          6.8342293146       -3.1535138699        5.2566694707
 O         -2.9780593287       -2.0445658256       -5.3457596698
 H         -2.1995601818       -1.5891529395       -5.6948284669
 H         -3.7440127069       -1.4545208065       -5.4501621703
 O         -1.9222575648        1.6771361176       -6.0929264668
 H         -1.2310035648        2.2661039547       -6.4309436437
 H         -1.5135214324        0.7886983776       -6.0740873695
 O          6.4918839244       -3.7274866433        3.5723701979
 H          6.1714705816       -4.6010049817        3.3119442495
 H          5.7758493327       -3.0963905264        3.3426443982
 O         -7.6609631892       -5.1750232807        2.0775698179
 H         -8.6071272781       -5.0268510807        2.0682674534
 H         -7.3149753767       -4.7093289418        2.8613988215
 O         -4.4784238665       -4.2895298900       -4.2649411496
 H         -4.0557647868       -4.7067883522       -3.4898908549
 H         -3.8650784326       -3.6238347601       -4.5958969505
 O          4.3020920520        2.4582815892       -3.7691063422
 H          4.8486419051        2.8254835735       -3.0478898126
 H          4.8884823942        1.9178342297       -4.3319142273
 O          8.6193144452       -4.0995758218       -0.3831465729
 H          8.8375369346       -3.7080836564       -1.2646472030
 H          9.1675930246       -4.8814353286       -0.3083674466
 O         -6.7844288729        2.2085779168        3.9688409449
 H         -6.0108794749        2.3095399275        4.5607654328
 H         -6.8662790561        3.0519086848        3.4897582152
 O         -2.8964818696       -1.8459891359       -2.6942413877
 H         -2.8794790665       -1.9366102075       -3.6662891874
 H         -2.1284788485       -2.3529056201       -2.3564122746
 O         -0.7565643409       -1.1789175811       -0.9746946933
 H         -0.0969136386       -0.6229530153       -0.5006523827
 H         -1.4710079347       -1.2974486686       -0.3375717543
 O          0.4742735032        0.7363749722        0.3355636300
 H          0.8815637901        1.2780580783       -0.3488320156
 H         -0.3773769707        1.1497238325        0.5315796094
 O          2.0528474697       -7.3466084332        1.3010394018
 H          1.4417250250       -6.8406256936        0.7562218627
 H          2.0059537931       -6.9695127623        2.1824809284
