  99
       -167.96571355
 O          2.9470364086       -0.2156137518        0.1061316202
 H          2.4654335390       -0.9656548503       -0.3235583118
 H          3.8559869447       -0.5101451230        0.2355451671
 O          1.8790830934       -2.3017795992       -1.0688477436
 H          1.1138824937       -2.7069056606       -0.6302587374
 H          1.5451028565       -1.8999762461       -1.9073257906
 O          5.6866145542       -0.8685628518        0.6054540841
 H          5.3663432190       -0.5811951617        1.5316582432
 H          6.4619082192       -1.4094897321        0.7577567618
 O         -4.7053313196       -0.4485918640       -2.7416730743
 H         -5.2723716422       -0.5548275826       -3.5069521808
 H         -3.7947812215       -0.2785328065       -3.1075720204
 O         -6.1362217635        0.9727242106       -0.8400500836
 H         -6.3821396930        0.2831172094       -0.2209350527
 H         -5.6476742612        0.5349314778       -1.5568713890
 O          0.3354058671       -2.8815897195        2.4867825411
 H          1.1009281105       -2.2791473031        2.5824679554
 H         -0.3773522400       -2.4687103475        3.0113599278
 O         -3.9467054696        0.7748755162        2.0868022339
 H         -3.5332257261        0.7433178228        1.1621608249
 H         -4.1432637126       -0.1511820928        2.2922809961
 O          2.1889476811       -0.8969020736        2.6269541036
 H          1.7261970696       -0.1679249914        3.0848192156
 H          2.3125426667       -0.5849432040        1.7082998060
 O         -1.1080531932       -2.6851653671       -2.6425531934
 H         -0.2905127290       -2.3573398470       -3.0542648148
 H         -0.8563028115       -3.0032862301       -1.7654079900
 O         -0.1687484706        1.1788152948       -2.6692722411
 H          0.2913669878        2.0278328107       -2.6725715004
 H         -0.0937921479        0.8706569757       -1.7368078921
 O         -3.8512024591       -2.9973300383       -1.9367217543
 H         -4.2353369187       -2.1278998151       -2.1316549804
 H         -2.9843026275       -3.0090414324       -2.3633902944
 O         -2.5970249738        3.5183065119       -0.3507179487
 H         -2.6500193426        4.3623263096       -0.7987575742
 H         -3.4977370007        3.3470371770        0.0260749698
 O          1.0709412751       -1.1870933514       -3.3389987038
 H          0.6742535813       -0.3049656185       -3.2078542228
 H          1.9816138182       -1.0164806447       -3.6799773684
 O          1.3904059202        2.6371388157        0.7622173727
 H          1.4436299290        3.0089969930       -0.1339848397
 H          0.5764057005        3.0324739986        1.1567825157
 O         -0.9094109665        3.4743160345        1.7656530454
 H         -1.3147094428        2.8607672097        2.3962646360
 H         -1.5152435062        3.5147515057        0.9970803809
 O          0.9557343451        1.3227657072        3.5230329014
 H         -0.0056458444        1.3983380163        3.5541132544
 H          1.2783346173        2.0313132875        2.9591428721
 O          5.8066837070        1.6541400034       -0.4071571913
 H          5.8385484748        0.7230146294       -0.1002434040
 H          6.6912757484        2.0082666483       -0.3181442601
 O         -4.0554087773       -1.9921434761        2.4701489485
 H         -3.7290820022       -2.5970625782        1.7536532176
 H         -4.6087228697       -2.5341893549        3.0331052664
 O          4.0084168134        2.3022281570        1.7036894554
 H          4.5608282852        2.2379337049        0.9121892557
 H          3.0928698260        2.3757538632        1.3904887297
 O         -0.3245475636       -3.5790723918        0.0804401595
 H         -0.1178402895       -4.5153234002        0.0545628683
 H         -0.0850720229       -3.2855953082        1.0120800452
 O         -3.1342891241       -3.6001662391        0.5931794977
 H         -3.5167336703       -3.4539643887       -0.2971280924
 H         -2.1735986202       -3.6175840760        0.4622506683
 O         -1.6298610602       -1.4212567889        3.6862343369
 H         -1.5454943449       -0.4600955868        3.6864203566
 H         -2.4938264901       -1.6228030146        3.2885056757
 O          4.7598502556       -0.0337408751        2.8376982713
 H          4.5177781441        0.8879368097        2.5999712166
 H          3.9024064094       -0.4829518462        2.9771611855
 O          3.6102508149       -0.5689528759       -3.7621857967
 H          3.6146235739        0.2465067377       -3.2327296520
 H          4.0845131451       -1.2273232705       -3.2243690719
 O          4.5893197266       -2.2304734076       -1.7718528984
 H          3.6996412799       -2.4956626935       -1.4943251530
 H          5.0135258907       -1.8329343259       -1.0030583943
 O         -1.9099741143        1.4909191565        3.5213581836
 H         -2.7253528144        1.2394593895        2.9903466714
 H         -2.2267877055        1.8261607119        4.3610274842
 O         -4.9785724918        2.9666488378        0.6783410285
 H         -5.4650196703        2.4196964819        0.0370797502
 H         -4.7714341838        2.3626025288        1.4051737377
 O         -2.2736194920       -0.2684045625       -3.6697694354
 H         -1.6051275910        0.3846223645       -3.3996722848
 H         -1.8881543952       -1.1350919686       -3.4745731379
 O          1.5728198778        3.2826737244       -1.9428738483
 H          2.3077700658        2.6241950775       -2.0005541918
 H          1.8890297648        4.0871155250       -2.3532255057
 O          3.4890607796        1.4626670765       -1.8751920120
 H          4.3710928560        1.7188438680       -1.5714042691
 H          3.1464680768        0.8776607189       -1.1551739830
 O         -2.6782068514        0.7863712823       -0.3426375913
 H         -2.4738179082        1.7130785017       -0.5525399944
 H         -3.1370318274        0.4319644023       -1.1090226214
 O          0.1498141679        0.3396114370       -0.1652613906
 H          0.6733401930        1.0312690513        0.2814025419
 H         -0.7480099454        0.3689780592        0.1802723129
 O         -6.0600488784       -1.5389601130        0.1203929167
 H         -5.8517883772       -2.0124012012       -0.6886229509
 H         -5.3100379424       -1.6475275591        0.7132916149
