  249
       -422.56279286
 O          2.5328320333        1.8124609561        0.9630122654
 H          3.1114759307        1.2077822298        1.4671543234
 H          2.0538902428        2.3315921072        1.6316668188
 O          3.0724709263       -1.5436537001       -1.6410039948
 H          2.1470431677       -1.6696706851       -1.9334491139
 H          3.0756111788       -1.6711407197       -0.6684346739
 O          2.0555189476        5.2567926036        0.8028357804
 H          1.3534782155        5.6459058021        1.3465667255
 H          2.7891170702        5.0932570593        1.4133483818
 O         -1.3485428960       -3.3670862816       -1.1157077069
 H         -1.5815672352       -4.3042770200       -1.2950299111
 H         -0.6449832293       -3.1153517429       -1.7425837150
 O          2.0945952420        4.9522368891       -1.9690760688
 H          2.1401190651        5.1103998733       -1.0126718799
 H          2.9789286934        4.6391719205       -2.2169966368
 O          0.2305208423        3.3706835082        0.0795813650
 H          1.0204456943        3.8305911342        0.4106202313
 H         -0.2177022907        4.0202752903       -0.5002144663
 O         -3.9080642736        0.6895903587        1.7640383923
 H         -4.3339722849        0.7226342969        0.8821583885
 H         -4.1941951146       -0.1505420075        2.1620765620
 O          0.2498659687       -6.3257091512        0.4639110848
 H          0.8215444552       -6.7552580837        1.1002969553
 H          0.8338732041       -5.8666552389       -0.1747209340
 O          1.4463538755        0.6362211134       -3.1146207397
 H          1.2784426698        1.5172160063       -3.5119191550
 H          2.2675812549        0.7629698573       -2.5796021584
 O          0.1088065651        5.4465069042        2.7783811622
 H          0.2265791366        5.9457649022        3.5859536171
 H          0.4683513154        4.5450158618        2.9476247519
 O         -3.9253999048        4.3827454547       -2.2737081141
 H         -3.7056442491        4.1540244854       -1.3521231150
 H         -4.7915887032        3.9770645340       -2.4121073227
 O         -2.0418402916       -2.6673520936        2.6631089776
 H         -1.7739583385       -1.8544424362        2.2030710743
 H         -2.9464958652       -2.5103721046        2.9538386961
 O         -2.0828357368        5.2870644005        1.0837525398
 H         -1.8151356162        5.5048049408        0.1858634514
 H         -1.3122681297        5.4232806959        1.6537188967
 O         -0.1478814818        1.7042011785        5.9795676333
 H         -0.6925226110        2.3111952424        5.4588023539
 H         -0.5053776960        0.8136292481        5.8151763877
 O         -1.2206437779       -0.7911539804        5.5106656201
 H         -1.2948397485       -1.2630521034        6.3406428863
 H         -2.1420258994       -0.5562712475        5.2476137456
 O         -2.8119626897       -1.1858705354       -0.9422778425
 H         -2.3589541874       -2.0508703096       -1.0453553641
 H         -2.4124722096       -0.7826070348       -0.1514650105
 O         -1.6456345977        2.4490580090        1.7937671846
 H         -1.5824017221        2.8014351851        2.6950153945
 H         -0.9458675981        2.8825756644        1.2718497948
 O         -7.4154806768       -1.9153142158        3.1304973903
 H         -7.8758362943       -2.5474109535        3.6819198226
 H         -7.6327014453       -2.1311132579        2.2086689861
 O         -3.7221227403       -0.1513011378        4.9331253927
 H         -3.9274550105        0.7544614278        4.6749909702
 H         -4.0898348388       -0.7283662738        4.2495436544
 O          2.9643880870       -2.1093622214        0.9399219629
 H          2.0295235328       -2.2753150565        1.1346349701
 H          3.3318892889       -3.0184510805        0.8161209626
 O          5.4012823121       -0.0729096957       -0.4359610768
 H          4.5693269681        0.2787903365       -0.8142767468
 H          6.0666329001        0.6159708597       -0.6390382856
 O         -1.6631029681       -5.9831117865       -1.6035101042
 H         -1.1384833055       -6.0443241219       -2.4100417684
 H         -1.1348037986       -6.3721759870       -0.8942514271
 O          3.3616388257        1.3552094120       -1.4644561662
 H          2.9863332125        1.5932229888       -0.5914589481
 H          3.7389820786        2.1878007144       -1.8141708558
 O          0.6433918900       -2.1828016422       -2.5725803375
 H          1.0373778961       -2.6596329621       -3.3347514268
 H          0.1117290604       -1.4580814732       -2.9359313618
 O         -4.2654947999        2.4041075528        3.6914788097
 H         -4.0342515546        1.8312340895        2.9149007831
 H         -4.3342087700        3.3172867821        3.3112873765
 O         -2.4618284822        1.5007219187       -1.6937422640
 H         -2.9651072117        1.9704798599       -0.9863336629
 H         -2.0960880392        2.2096565421       -2.2582869855
 O          6.0987848215       -4.1190654193       -0.8799739804
 H          6.8918647195       -4.6547893551       -0.8954892087
 H          6.3164037776       -3.2881196405       -1.3857176671
 O         -8.3184033471        1.2502955763       -1.6336444217
 H         -8.3708947288        0.3473096794       -1.9831011052
 H         -8.2833812890        1.1347580886       -0.6731203096
 O         -3.5914635977        3.0494831468        0.0609364511
 H         -4.4920445790        3.0677173669        0.4254565969
 H         -2.9634438287        2.9438874849        0.8056941682
 O          3.9901173933       -0.0004711477        2.2544468382
 H          3.7240877688       -0.7783662040        1.7304084640
 H          3.6851479389       -0.2130728170        3.1647062171
 O         -6.1667107407        3.3039204815        0.9192277248
 H         -6.7416904683        3.2210392677        0.1557874057
 H         -6.5380424259        2.7528159149        1.6300851912
 O         -4.7319824769       -1.6919103281        2.8109019445
 H         -5.6641399484       -1.7324883341        3.0937379843
 H         -4.7514953421       -2.0352371315        1.8847891823
 O          6.5571455038        4.3576937440       -0.8269177190
 H          6.4278730324        4.2589698215        0.1431922145
 H          7.0649907624        5.1562631951       -0.9704388436
 O         -6.0390132926        2.5403145932       -2.2021906857
 H         -5.6147034568        2.0521170479       -2.9291375214
 H         -6.9546501305        2.1958742946       -2.1396403010
 O         -1.8906786638       -3.0680486110       -4.2252059498
 H         -1.7148865921       -2.1494265131       -3.9089485498
 H         -2.1593188842       -3.0097290311       -5.1412335009
 O         -2.0540444370       -5.1050881159        1.5266003943
 H         -1.2071639414       -5.4076966019        1.1652341685
 H         -1.9506323338       -4.2031349229        1.8933030143
 O         -6.8430013763        1.8606647422        3.2041362695
 H         -7.4305765486        2.1777284771        3.8889721076
 H         -5.9231126593        2.0026765589        3.5260687825
 O          2.4768716073       -0.7077663190       -5.2197021659
 H          2.7103818202        0.0793881289       -5.7317839477
 H          1.9819112344       -0.3359090571       -4.4589614668
 O          0.7207145654       -1.8180801687        3.8381623706
 H         -0.0104265068       -1.4926601181        4.3870382717
 H          0.5943748779       -2.7762666133        3.7269878802
 O          3.1966363094       -5.1880271368        3.0202131414
 H          3.6879305006       -4.4328342687        3.3818946507
 H          2.2572088508       -4.9993110428        3.1823489482
 O         -4.3402614926        4.7629509052        2.5269904894
 H         -3.5579161053        4.9853720006        1.9884256889
 H         -5.0686652522        4.6539035983        1.9043928458
 O          3.6435769845       -4.5968249192        0.4995169661
 H          4.5274474053       -4.8323136350        0.2108701726
 H          3.5027913034       -4.9691787809        1.4028100627
 O         -2.2831455202        1.3279249784       -5.1260116095
 H         -2.3931078357        1.2916237166       -6.0749849821
 H         -3.1691324638        1.1709568325       -4.7122809874
 O         -4.3285554930        0.9278449446       -3.5676329123
 H         -3.7303552767        1.0657981317       -2.7983296474
 H         -4.7746218166        0.0736353119       -3.3776232763
 O         -8.0781735766       -1.4841408578       -2.2225214916
 H         -7.1086118565       -1.4107243804       -2.4191356195
 H         -8.4669843259       -2.0072219853       -2.9225502430
 O          3.7837676645       -3.9478475039       -2.5355951529
 H          4.5721029676       -4.2583215362       -2.0776117860
 H          3.6245084143       -3.0348504511       -2.1990589973
 O          5.7327022230        1.7039672897       -3.7420531620
 H          6.4855692890        1.6422668161       -3.1425530111
 H          5.3372267433        0.8032596647       -3.7402226419
 O          4.8052048743       -2.9718570604        3.6169797303
 H          5.1314811850       -2.6513050766        2.7490011785
 H          5.5817479427       -3.1928236915        4.1314340946
 O          6.2472150033        1.4398027248        2.4816358034
 H          7.0069267445        1.0869637125        1.9894212033
 H          5.4784776062        0.8697572432        2.2760010560
 O          7.2338712056        1.7201958607       -1.2579188544
 H          7.0287753015        2.6632712297       -1.1535485949
 H          7.8673359610        1.5005386677       -0.5553055579
 O          4.6832964392       -0.7673147813       -3.6628961469
 H          4.0333127700       -0.8150605663       -4.3890056413
 H          4.1496097591       -0.8933523869       -2.8569266817
 O          1.4742379632       -4.8345176770       -1.3882425615
 H          0.9195014830       -4.8998768258       -2.1874146100
 H          2.3783839795       -4.6471752487       -1.7012011245
 O         -4.1290550544       -3.4599430192       -2.6178000472
 H         -3.3061275783       -3.4575096483       -3.1273103235
 H         -3.9753506955       -4.0073427783       -1.8305133814
 O          4.4482744932        3.6133311219       -2.4306454124
 H          5.1364159790        3.9675559064       -1.8461474583
 H          4.9266572454        3.0333777933       -3.0651565620
 O         -0.0257186703       -5.0028359459       -3.6719190512
 H         -0.7378172627       -4.3604008360       -3.8452401121
 H          0.6900509774       -4.7539492160       -4.2695742100
 O         -7.5643552891       -2.1408751463        0.3923990803
 H         -6.6005508250       -2.2679887794        0.2783951015
 H         -7.9194924419       -2.0315328008       -0.5068853118
 O          0.5413604019       -4.4464084361        3.1149032852
 H         -0.3207321186       -4.8444098013        3.2539388509
 H          0.5339809139       -4.0789209029        2.1970718234
 O          4.7231124872        2.8795399444        4.6384788391
 H          3.9161659022        2.4178316574        4.9261100059
 H          5.2457793616        2.2415638938        4.1394112785
 O          6.5990865443       -1.8245713804       -2.0226788335
 H          6.1197803838       -1.1859205515       -1.4367436945
 H          6.2113297743       -1.6675672176       -2.8944610949
 O          0.5864902357       -3.3487095094        0.7014766472
 H         -0.2956233744       -3.2791520187        0.2884855333
 H          1.0990746941       -3.8649703233        0.0498500938
 O          8.5041695243        0.7995478200        0.9873552429
 H          8.4987475344       -0.1549043961        0.7070506290
 H          9.3631950095        0.9574027798        1.3784266371
 O         -5.3167409965        0.5835177564       -0.4788844588
 H         -6.1567709778        0.5135525486        0.0239134283
 H         -5.4230921704        1.3876971025       -1.0262153621
 O          1.5248943936        3.2068349538        3.0189280291
 H          2.3393914020        3.7437007314        2.9724609254
 H          1.6884736236        2.5861613871        3.7625629268
 O         -1.4445766936       -0.6185320614       -3.2917503607
 H         -1.6340063700        0.1182720146       -3.8908893738
 H         -2.0489363412       -0.5589731217       -2.5244860872
 O         -1.7836146203        3.4435999674       -3.4487652556
 H         -2.6458367996        3.8555234212       -3.1797298589
 H         -1.9707011861        2.8646065680       -4.2063252967
 O          2.3073437285        1.6270585683        5.0080461478
 H          2.5601815238        0.6938519323        4.9612606164
 H          1.4698787336        1.6607796464        5.5257501937
 O         -4.8710972520       -2.4089656195        0.2753652829
 H         -4.6434482385       -3.3414023133        0.1190713792
 H         -4.2026412168       -1.8815452050       -0.2190283663
 O         -5.4813838306       -1.1903226837       -2.5125490755
 H         -5.3043176759       -0.7341775170       -1.6612016916
 H         -4.9750221427       -2.0346052863       -2.5104510039
 O          1.0096657622        3.1761371877       -3.7344249974
 H          1.3883139759        3.8025377985       -3.0899596579
 H          0.0601086209        3.3497734480       -3.7544620413
 O          2.0026451567       -3.3469958486       -4.5758679319
 H          2.7784757737       -3.6418127105       -4.0736315910
 H          2.2537134097       -2.5282796796       -5.0305355411
 O         -0.7042243371        5.2818080036       -1.5292509099
 H          0.1633159666        5.5539962874       -1.8526521359
 H         -1.1749778273        4.8938636253       -2.2757759139
 O          3.8582118797        4.5920082855        2.8142917639
 H          4.6312711936        4.4723759350        2.2376906935
 H          4.1395951645        4.1198070565        3.6334485956
 O         -7.5813342290        0.4880445955        0.9241403253
 H         -7.4315569359        0.7189223743        1.8512961394
 H         -7.7083829031       -0.4821017108        0.8773690463
 O          3.1482276782        1.9500097434       -5.3863949806
 H          2.5544766543        2.5833566673       -4.9678843126
 H          4.0314121033        2.1123398391       -5.0423621235
 O         -1.8299397336        3.3337272540        4.3842915910
 H         -2.7221762121        2.9290662236        4.3488089942
 H         -1.9719612514        4.2812122003        4.4165248051
 O          3.1057347303       -0.9790537450        4.5499808171
 H          3.6974924024       -1.7391152355        4.4425543804
 H          2.2067698512       -1.3106125294        4.3109287991
 O          6.2885504313        3.9479139575        1.7779187480
 H          6.8831895995        4.3331479165        2.4228858861
 H          6.2267027787        2.9788336547        2.0143394028
 O          8.3515484726       -1.6991912903        0.2069455574
 H          8.0797369703       -1.7074856660       -0.7205418644
 H          7.5656255404       -1.9790389138        0.7148760395
 O          5.8681583657       -2.2458213899        1.2067979657
 H          5.7304885030       -2.9625586525        0.5667726418
 H          5.5423316888       -1.4309187117        0.7811293723
 O         -3.9629296842       -4.8897201721       -0.2651609703
 H         -3.2264846948       -4.9859039129        0.3931423720
 H         -4.1640612813       -5.7790701056       -0.5550557319
 O         -1.4274812044       -0.5003560101        1.2228678142
 H         -0.5988250195       -0.3674607322        0.7050948355
 H         -1.6904603641        0.3807242969        1.5227483170
 O         -4.5207882635       -1.6500520087       -5.3592563116
 H         -5.0095639487       -0.8719094874       -5.0831369379
 H         -4.4976218564       -2.2359700704       -4.5966882933
 O          0.6342891312        0.1447635067       -0.2965042117
 H          1.0506885948        0.9159669268        0.1115285102
 H          0.4506132910        0.3869010710       -1.2109997307
