  84
       -142.48860202
 O         -1.3003515684       -3.9552336620        1.2191988267
 H         -1.7356940827       -3.0896272366        1.4013682261
 H         -1.8654248285       -4.6375751331        1.5827487344
 O         -0.8247402822       -3.7250454239       -1.4800007327
 H          0.1348698614       -3.6854653342       -1.5399858152
 H         -1.0260708048       -3.8931645222       -0.5420198904
 O          3.5894823373        2.2800016774        1.5589254455
 H          4.1408355404        2.5378283207        2.2981471617
 H          2.6537141876        2.4018146077        1.8471308106
 O          1.3449733360       -1.0145254622        2.9502468714
 H          1.8573317651       -0.8756090921        3.7480072794
 H          0.4569829416       -0.6162666186        3.1477118372
 O          2.0133088526       -3.0053106286       -1.2517604196
 H          2.9360546655       -2.7151153033       -1.2394867695
 H          1.7998954540       -3.1702121847       -0.3091275729
 O         -4.6085335066        1.0877920573       -0.4046791813
 H         -4.5189481387        0.0871938843       -0.4291162814
 H         -5.4105022738        1.3021501431       -0.8823110268
 O         -2.0110079591        1.5815243792       -1.0730271923
 H         -1.7953220898        1.0965171639       -1.8856508169
 H         -2.9619997225        1.4639220257       -0.9034386475
 O          2.5458419207        0.5444954019       -3.7955286025
 H          2.0241174703       -0.2723326255       -3.7399488437
 H          1.9063345342        1.2752360851       -3.7635261989
 O          4.6278847550        0.6031490257       -2.2193459351
 H          3.8435784994        0.6061912760       -2.8322965270
 H          5.3939420639        0.7417014855       -2.7790701374
 O          1.0975565551        1.9855722654        2.3409959175
 H          0.4912337891        1.4422793315        1.8089796842
 H          0.5316631163        2.6190559462        2.7875432436
 O          0.9785421365       -1.6860231146       -3.3422999419
 H          0.8980130957       -2.3414670517       -4.0374634781
 H          1.3198764988       -2.1632567919       -2.5539229069
 O         -2.4024263499       -1.5629452017        1.5598492033
 H         -1.7354087264       -0.8638236987        1.4008321494
 H         -2.8719144382       -1.2976442475        2.3710850299
 O         -2.6756189253       -2.2101835810       -2.6248999629
 H         -3.1579346811       -2.7879548792       -3.2180513557
 H         -1.9704926877       -2.7658898175       -2.2131138751
 O         -3.6913511423       -0.4850467190        3.6834044513
 H         -3.9664499850        0.3349525797        3.2283709868
 H         -4.4325757808       -0.7738662363        4.2166785817
 O         -4.3782631287        1.7187260881        2.2124884476
 H         -5.0276333801        2.3972459462        2.4022711442
 H         -4.4531969873        1.5080349422        1.2561697620
 O          0.3757853198        2.2660529384       -3.6658095764
 H         -0.3141863507        1.5917018716       -3.5668420384
 H          0.1043268615        2.8495615127       -4.3758402043
 O          1.2575360454        3.1031524977       -1.1039029541
 H          0.9404131613        2.9961717109       -2.0096838149
 H          2.2139510325        3.2970260729       -1.1674099098
 O         -0.9106510363        0.0886052516        3.6956191132
 H         -1.1056152677        0.9802594001        3.3422731058
 H         -1.7613399246       -0.2657339021        3.9738323530
 O         -0.9552472351        3.6728435562        0.3897924335
 H         -1.4727520853        3.1646716124       -0.2488121029
 H         -0.0536458106        3.6573549791        0.0287931098
 O          3.9474863525        3.1064619117       -1.0889054496
 H          4.2497032406        2.2717855732       -1.4767792533
 H          4.0014863958        2.9925495440       -0.1302893338
 O          1.3680426006       -3.2863878375        1.3474879233
 H          0.4956666801       -3.7060545061        1.4066248360
 H          1.3914036959       -2.6182814876        2.0496812195
 O          4.3719003194       -1.5960908227       -0.7274977125
 H          5.2247137968       -1.9783433248       -0.5182576809
 H          4.5373714644       -0.8147211814       -1.3061335902
 O         -1.2125417249        0.0043428933       -3.2216634266
 H         -0.3990570198       -0.5239706985       -3.3007889512
 H         -1.9154715302       -0.6650209786       -3.1450418327
 O         -4.1973911561       -1.4593782044       -0.4592788254
 H         -3.5775269885       -1.5854858700        0.2865934312
 H         -3.7081650752       -1.7197460149       -1.2595590199
 O         -1.6846963579        2.4597519833        2.6608339132
 H         -2.6331428140        2.3043816055        2.5628563133
 H         -1.4197578210        2.9791357014        1.8706467168
 O         -0.5835067383        0.2531198890        0.8534315130
 H          0.2262821574       -0.0789648413        0.4180737341
 H         -1.0225430070        0.8133457054        0.1896605564
 O          4.0070118954       -0.7167221665        1.9835173151
 H          3.8717921625        0.2036470318        1.7283498339
 H          3.1228881763       -1.1000690662        2.0040408581
 O          1.7406300825       -0.0491443365       -0.4893976846
 H          2.5217030121       -0.5692698106       -0.2715447214
 H          1.9841786403        0.8797453046       -0.4231482318
