  191
       -320.31746412
 H         -2.9703257929       -1.8923270491       -1.1732056392
 C         -3.4636727171       -1.2300967850       -0.4617308785
 H         -4.5326489874       -1.4412064159       -0.4555626747
 C         -3.2448287929        0.2316109517       -0.8599347797
 H         -3.4610512954        0.3464353552       -1.9196062548
 H         -2.2052942290        0.5040757048       -0.6836085649
 N         -4.0784830018        1.1605046034       -0.1157655576
 H         -5.0604706660        0.9136995927       -0.2216711446
 H         -3.8473263847        1.1029353933        0.8702100576
 O         -2.9961904976       -1.4956011411        0.8547171835
 H         -2.0239512316       -1.6251024259        0.7995069017
 O         -3.1823489118        3.6055880129        3.9132849590
 H         -3.9868259004        3.1224471839        3.6532564730
 H         -2.8001532054        3.9123024171        3.0795760941
 O          1.2127935664        5.3948059817       -1.6393119009
 H          0.8456989919        4.7356238058       -2.2673100323
 H          0.4098205439        5.8523706597       -1.3342069148
 O          3.7063538789        4.1085349883       -2.1733682392
 H          3.1883586893        3.3023662557       -1.9332219021
 H          3.0679230280        4.8295986505       -2.1619827800
 O         -0.4996154187       -2.0376549565        0.1815607773
 H          0.3166819930       -2.3159982199        0.6447420898
 H         -0.5247244831       -2.5771045086       -0.6371154038
 O          0.0301702177        0.1087474950       -1.2243806722
 H         -0.2127590688       -0.6142924392       -0.6036641961
 H         -0.4146332187       -0.0763164694       -2.0746822395
 O          3.7049357170        2.7126887553        1.6080939142
 H          4.5389457222        3.0490376709        1.2600718109
 H          3.0272598732        3.3276123445        1.2759770024
 O          1.1272326675        1.6866940858        4.6485854031
 H          0.8335475127        2.1760072206        3.8612337257
 H          2.1065939160        1.8368853387        4.6535788788
 O          1.1890559940       -0.8903125300        5.0644397136
 H          1.0312704965       -0.9606624222        6.0064147716
 H          1.1238895877        0.0889802341        4.8582416920
 O         -0.9524714421       -4.0860112340        2.6802848157
 H         -0.2121200033       -4.4266686791        3.1890910262
 H         -0.8649517568       -3.1101162200        2.7311645930
 O         -1.1676893293       -5.5658854008        0.3646603024
 H         -1.9452849075       -5.2403355185       -0.1034675921
 H         -1.1021141966       -5.0456919217        1.1851292367
 O          2.9224281137       -3.5516366240       -2.3039432188
 H          2.4851054167       -4.2440909820       -1.7932808674
 H          2.6860707714       -2.7102144257       -1.8702287785
 O          1.2608621288       -4.9612102277       -0.6006032236
 H          1.4813292390       -4.3182769104        0.1060938294
 H          0.4699204059       -5.4303204205       -0.2732491777
 O          2.3784124439        1.9124397410       -1.4904155848
 H          1.6474545468        2.1867888875       -0.9214028260
 H          1.9659600886        1.5808352115       -2.3160400234
 O          2.4611944346       -1.0622716929       -1.1048959229
 H          2.7529794234       -0.7887808962       -0.2176408197
 H          1.6319119511       -0.5703882359       -1.2607302803
 O          3.2075740652        0.9631005808       -5.4792115579
 H          2.4051040139        1.1313039521       -4.9522040384
 H          3.2836522544        0.0079081261       -5.5533358662
 O         -0.2030131041        3.5245848216       -2.9235763262
 H         -0.2257946563        3.1572014431       -2.0093789698
 H         -1.1352548498        3.7474629388       -3.1139725834
 O         -1.0618197851       -0.4031394660       -3.6093138993
 H         -0.5460422078       -1.1522475819       -3.9590128919
 H         -1.9971912522       -0.6443848395       -3.6964737073
 O         -1.7600743644        1.5292728445        4.8192410878
 H         -0.8321284965        1.7294426406        4.9871330474
 H         -2.2279367777        2.3836264513        4.6910962131
 O          1.7403304836       -3.0018023521        1.2095257259
 H          2.6626848682       -2.7156044717        1.0361271026
 H          1.6916616979       -3.2491914218        2.1497628865
 O         -6.8834595715        0.3447975932       -0.3798339308
 H         -6.9405498766       -0.3626450981        0.2804519756
 H         -6.7525793585       -0.1025563829       -1.2306790600
 O         -5.3170591397        2.0602169242        3.0405283425
 H         -6.0142833921        2.0493683559        3.6965705783
 H         -5.0393329941        1.1195538136        2.9156818809
 O         -3.6555774567       -3.8665280042        1.9913767352
 H         -2.8196314325       -4.1148768996        2.4120219865
 H         -3.5273794347       -2.9421629916        1.7026771628
 O          2.8672304884        0.1003635075        1.3397789013
 H          3.2364478245        1.0003275992        1.3017357953
 H          3.2414137918       -0.2928187716        2.1517280838
 O          1.0838551068        1.3751309473       -3.8023664760
 H          0.6403778495        2.2426355242       -3.6978258567
 H          0.3590350013        0.7366573868       -3.8572553599
 O         -4.0827372495        1.5949555966       -3.9304612575
 H         -4.9991169721        1.5387632795       -3.6539767086
 H         -3.8072064031        0.6984724496       -4.1571345846
 O         -1.3695193960        5.7769209858       -0.8611818862
 H         -1.6276914995        5.2320346285       -0.1126166549
 H         -1.8992183232        5.4795731033       -1.6085929010
 O          4.9905054041        1.9092262607       -3.6757030499
 H          4.4432306749        1.6942818277       -4.4581829445
 H          4.6508169804        2.7411310883       -3.3282053303
 O         -3.6963651556       -1.2824945541       -3.7843013493
 H         -4.5766974097       -1.2197677343       -3.3772023451
 H         -3.4124170491       -2.1987311025       -3.5925680325
 O         -0.3149902229       -3.4074755061       -2.0955401749
 H          0.2908564332       -4.0750970556       -1.7030231562
 H          0.1384224160       -3.0347991014       -2.8723617211
 O          5.4237013130       -2.8145703516       -1.5472421372
 H          4.6926467026       -3.3469177970       -1.9065719336
 H          5.3116164791       -1.9510357828       -1.9880632462
 O          4.4445845893       -0.6038169850       -2.8163275342
 H          3.7178707219       -0.6051546837       -2.1581451504
 H          4.6705237465        0.3243308276       -3.0165780535
 O          3.6583812805       -0.8233015938        3.7628574482
 H          2.8427084935       -0.9332605303        4.2725399595
 H          4.0883307659       -1.6919111288        3.7027187167
 O         -6.4364352166        3.0899818888        0.6511869872
 H         -6.0484191959        2.8005126040        1.4918471021
 H         -6.7695010347        2.2890891781        0.2288408435
 O          4.8871451187        1.2419156007       -0.6034261315
 H          5.1943359155        2.1504878604       -0.4468797046
 H          3.9696824927        1.3244391367       -0.9130143905
 O         -0.1259168945        2.6255662641       -0.4307502740
 H         -0.8568589950        2.9275907070        0.1329599985
 H         -0.2017816671        1.6560165542       -0.5525664219
 O         -2.3240632358        1.0616580193        2.2003517890
 H         -1.5310712949        0.6582567540        1.8236823388
 H         -2.1592368916        1.1341736804        3.1603148982
 O          1.9153312049        4.5718996716        0.7648983003
 H          1.6370978413        4.7635230588       -0.1703740372
 H          2.1784548854        5.4137643104        1.1372488537
 O         -6.2303340315       -1.2660053743       -2.5987931137
 H         -6.1812226606       -2.0609220949       -2.0073615559
 H         -6.8954911630       -1.4724032304       -3.2565060960
 O          0.3404210254        3.0929290289        2.4286214738
 H          0.9358040059        3.5890862682        1.8370238275
 H         -0.5420526638        3.4390763883        2.2458216378
 O          4.3437943039       -2.5061228232        0.9080015341
 H          4.8157326885       -1.6573982322        1.1469009738
 H          4.7401422037       -2.7502245865        0.0453823789
 O          7.1624177338        0.6098768942       -2.0191566536
 H          6.9690412151        0.8269329930       -2.9337227652
 H          6.3297165969        0.7766567021       -1.5428389722
 O          3.2147808049       -2.0507608315       -4.6319434601
 H          3.3521807083       -2.9080866263       -4.2110429798
 H          3.6947385035       -1.4317154111       -4.0250971974
 O          5.7950027136       -0.4082093107        1.3697885073
 H          5.4416993388        0.2403250309        0.7353182261
 H          6.5954816123       -0.7691640490        0.9330061902
 O          1.7460056691       -3.5795160914        3.8718157796
 H          2.7083315389       -3.7074024913        3.8537386669
 H          1.5836009371       -2.7667475064        4.3633197272
 O          0.2788834589        0.4912433812        1.6071205074
 H          1.2111385920        0.2353217814        1.4256391272
 H          0.3407254701        1.4219430714        1.8935530451
 O         -6.6034063932       -1.7994664692        1.4474895915
 H         -7.1996782154       -2.2083435912        2.0745185139
 H         -5.8831310364       -1.3873014691        1.9790072942
 O         -4.6654397726       -0.5133780391        2.7652463158
 H         -4.0021302910       -0.6290349090        2.0579362975
 H         -4.1620633209       -0.7556871544        3.5819353254
 O         -6.1622919963       -3.2753320033       -0.8813071047
 H         -6.3197007527       -2.8614035202       -0.0161631695
 H         -5.3509405772       -3.8044530098       -0.7921478451
 O         -3.8882230313       -4.8325775099       -0.4164503989
 H         -4.2037631547       -5.7359459031       -0.3717842137
 H         -3.8284349879       -4.5068976392        0.5288813728
 O         -2.8950895373       -3.7183106415       -2.8815881165
 H         -3.3300083263       -4.1353119816       -2.1286456114
 H         -1.9483786396       -3.6790455918       -2.6495894038
 O         -0.6769645896       -1.4618163148        3.1561884072
 H         -0.0596558822       -1.3723993997        3.8989700666
 H         -0.3470215267       -0.8214290994        2.4899105676
 O          5.4967316312        3.8775950571       -0.2291456214
 H          4.8665912808        4.0993617989       -0.9577775588
 H          6.3749717630        4.0748391931       -0.5546459291
 O         -2.1405044775        3.5345270951        1.2664157842
 H         -2.8895334722        3.7302257468        0.6535121169
 H         -2.3156290987        2.6124249782        1.5781107158
 O         -2.8550727108        3.9627184239       -2.9568527295
 H         -3.3432053670        3.9490506690       -2.1117621563
 H         -3.2170147532        3.2189558879       -3.4586666535
 O          3.7238704871        1.9137129011        4.2479528672
 H          4.0069360385        0.9936099155        4.1453674761
 H          3.7730917323        2.2929689816        3.3530487858
 O         -2.9229949592       -0.9881663017        4.6756094905
 H         -2.6437821588       -0.1144160859        4.9850830664
 H         -2.1948363527       -1.2899699821        4.1020313092
 O         -4.0531528957        3.7301174138       -0.5268852763
 H         -4.0284480364        2.7192040193       -0.5175895568
 H         -4.9527183326        3.9119967778       -0.2103543556
 O          4.4566883458       -3.4262612625        3.3575763700
 H          4.4522001970       -3.2126328362        2.3872192028
 H          5.3298030581       -3.7660746499        3.5508357440
 O          7.6215889200       -1.4986475973       -0.2829340491
 H          7.0702262672       -2.1666313739       -0.7093160168
 H          7.6875062410       -0.7745357287       -0.9278525027
 O          0.6251552619       -2.3462426024       -4.4257942946
 H          1.5977308575       -2.1345296608       -4.4794968748
 H          0.4192661803       -2.8610739694       -5.2057128046
