  312
       -524.29570985
 H         -1.2526234277        0.0444125968       -0.8283091154
 C         -0.3627307067        0.2829852731       -0.2499962493
 H         -0.4252239213        1.3143995869        0.0899288912
 C          0.8631163889        0.1078304528       -1.1203982814
 H          0.7341688883        0.7033212992       -2.0171933402
 H          0.9727220286       -0.9369514733       -1.3866699097
 O         -0.2619477655       -0.5965269730        0.8670180939
 H         -1.1072420152       -0.6331105789        1.3633831934
 N          2.0851039653        0.5321174624       -0.4101503962
 H          2.3984264260       -0.2497360947        0.2112775502
 H          1.9117927322        1.4088689201        0.1448790981
 H          2.8395848154        0.7136653592       -1.0886051683
 O          2.5824870041       -4.0354091177       -4.2415479090
 H          2.5505287931       -3.1084804243       -4.5334021653
 H          3.4854022383       -4.1756804796       -3.9266636918
 O          6.3041035947        4.6883307941       -0.8467225606
 H          5.9697265799        4.2116779647       -1.6209573490
 H          5.5598155878        4.8448769138       -0.2485222734
 O          0.0147685851        5.7693228261       -1.9379379772
 H          0.8762242491        6.0908856273       -1.6245713134
 H          0.1906283894        5.5050731008       -2.8566014043
 O         -2.8669585765       -0.4053837931        5.3424871039
 H         -2.9262881971        0.5162462011        5.6772672849
 H         -3.7598137228       -0.7318096989        5.2027989351
 O          0.0181498543       -2.4294109599        2.8224723806
 H          0.7136135193       -3.0978614714        2.7425518949
 H         -0.7224907167       -2.8571526505        3.2648941949
 O          2.7654340277       -1.8271492093        0.7673475642
 H          2.0200596474       -2.3609385783        0.4290506305
 H          3.5699674850       -2.1814594884        0.3452107858
 O          0.8385018781        3.9857149109        4.4050337807
 H          0.2632562221        4.3948033177        3.7380864560
 H          0.3133167089        3.3848201336        4.9577783888
 O         -2.8844181655       -1.4553223765       -5.8027231179
 H         -3.6277736874       -2.0665894892       -5.7558070199
 H         -2.9188260087       -0.9373759678       -4.9907839019
 O          4.1341630074        0.5091616225       -2.2289616286
 H          4.4610177159        0.2480325253       -3.1170730843
 H          4.7928463333        0.1679411331       -1.5828299975
 O          2.6561907031        6.1718500514       -1.3530998932
 H          3.0250554663        5.2636214639       -1.4655573284
 H          3.1810771365        6.7491935256       -1.9068704845
 O         -4.9920767646       -2.3542054706        1.8547907913
 H         -5.2124322970       -1.4475104386        1.5654647077
 H         -4.1667995079       -2.6075600977        1.4007741389
 O          2.8421522760       -1.9458134410       -2.2266008946
 H          3.2155980031       -1.0547887702       -2.3021902464
 H          3.5570706967       -2.5573415831       -2.4777750920
 O         -3.3219501563       -4.2262225947       -2.9231445160
 H         -3.6230082814       -4.7621361858       -2.1739513825
 H         -2.5721390550       -4.7228228680       -3.3301779271
 O          0.0704940810       -3.5859403301       -5.4794120774
 H          0.9034165860       -3.9709556697       -5.7595953230
 H         -0.0815403842       -2.7582613891       -5.9995446622
 O          0.3614543929       -2.2321994421       -3.1828585967
 H          1.3113200369       -2.1935909411       -2.9469555262
 H          0.2719017879       -2.7864507005       -3.9875160576
 O         -2.6523598314        2.1489447611        6.0828194817
 H         -2.5833113636        2.7588541680        5.3208729878
 H         -1.7433500197        2.0727698091        6.4052178360
 O         -2.7574893078        2.1746547909       -1.8894952454
 H         -3.6152836357        2.2083401355       -1.4189145923
 H         -2.8278448020        2.7612638387       -2.6676637586
 O         -8.4909387522        0.8026074239        1.0109917102
 H         -8.7582976991        0.8896259485        0.0827554479
 H         -8.3637827138        1.7002927252        1.3740370725
 O          5.8594277028        2.6223692893       -2.7766653859
 H          5.1265208260        2.1383755486       -2.3595679917
 H          5.6171069400        2.6466173608       -3.7197116846
 O          0.4680771580       -2.9859025757       -0.1297576962
 H          0.1539612598       -3.6880471388        0.4601908960
 H          0.0995101648       -2.1510628528        0.2258538713
 O         -7.7538973406        3.1974310170        2.0008977925
 H         -7.0208554356        3.6394182418        1.5403006479
 H         -7.5635793371        3.2664072014        2.9378399679
 O         -4.3931251628        0.8597489453        2.9414156227
 H         -5.1737712572        0.6068063080        2.4292405740
 H         -4.7198961685        1.2286282614        3.7879196227
 O          5.9459039887       -0.5332802245       -0.6286406065
 H          6.6737208384       -0.2537013775       -1.2223489960
 H          6.2672714399       -0.3923139723        0.2877063244
 O          4.3927501703        0.1607649003        2.1914983607
 H          4.4991531175        0.8747008446        1.5392421947
 H          3.4358655171        0.0263486136        2.2877328140
 O          4.9280591374       -3.5719989785       -2.8730352635
 H          5.7109308238       -3.0901908356       -3.1905546441
 H          5.0892147625       -3.6857887044       -1.9215199723
 O         -0.4931130503        2.7162485116       -5.2207756753
 H         -1.2936727074        3.1333931725       -4.8724818572
 H         -0.4753908353        1.8313463707       -4.8288883194
 O         -8.7408446163       -1.4554289105        2.5572369512
 H         -8.9346439323       -0.6942117686        1.9902909577
 H         -8.1489192652       -1.0874566554        3.2318400714
 O          6.8074920433       -3.8560757635        1.6011399814
 H          6.7941890368       -4.7507299006        1.9418154061
 H          6.6539802157       -3.2655734062        2.3617748003
 O         -0.6393871433        0.0503778328        3.9238795800
 H         -0.3277657275       -0.8092979423        3.5924696526
 H         -1.5101361482       -0.1180114315        4.3249340110
 O         -2.7943425006        4.6571434901        0.6462353064
 H         -2.7178287879        3.6831471762        0.7029868587
 H         -3.7190330017        4.8437265150        0.8514331429
 O         -5.1677155600        2.1293152115       -0.6707253296
 H         -5.7538155247        2.0092524479       -1.4639892487
 H         -5.3469094117        1.3612917663       -0.0910835051
 O          5.0008454165       -2.9819343138       -0.2325994687
 H          5.4126059982       -2.1153553754       -0.4647051317
 H          5.5874236615       -3.3579028527        0.4470747292
 O          8.0480637882       -2.7935234985       -0.8025473137
 H          8.6571032787       -2.1421940162       -0.4278968803
 H          7.7062374069       -3.2887262810       -0.0492710002
 O         -5.3440055018        1.9588662274        5.2025784040
 H         -4.6294665021        2.0810581268        5.8387639663
 H         -5.3905415037        2.7948059865        4.6993692783
 O         -2.4331643171       -3.1285828242        3.9409067797
 H         -2.7233063011       -3.9607022181        3.5135460403
 H         -3.2047128327       -2.8029744311        4.4285492642
 O         -0.6217999670       -2.0564300536        5.9473875457
 H         -1.3145064343       -1.3889839998        6.0423224803
 H         -1.0339173277       -2.7714739203        5.4518200568
 O          1.0531491990       -4.7785141671       -2.1182582199
 H          1.6064118673       -4.5413272366       -2.8955188776
 H          0.8329558852       -3.9443275918       -1.6618705291
 O          1.2107404276        2.7254820744       -2.5375932179
 H          1.0594324376        3.4740311053       -3.1589877700
 H          0.5626901464        2.8806545867       -1.8020757734
 O         -0.5701639186        3.3701495217       -0.7468239832
 H         -1.3996532359        3.0047002484       -1.1034097317
 H         -0.5205200775        4.3047683396       -1.0171307650
 O         -8.9157998013        0.4235348824       -1.6695688560
 H         -9.7228564488        0.4839240413       -2.1808406777
 H         -8.7052430334       -0.5343714992       -1.5768291499
 O         -0.3637843467        0.1308474995       -4.1765488120
 H          0.0023321376       -0.6849982371       -3.7723739182
 H         -1.3059916189        0.1159398355       -3.9150016490
 O         -3.3360548019       -0.2966079204       -0.3136549475
 H         -4.0621382587       -0.8178829720       -0.6928374663
 H         -3.1088744628       -0.7236992522        0.5246364324
 O          7.2609891732        2.4744731921        0.2206363154
 H          7.0957573568        3.3702144090       -0.1575173273
 H          8.0951142652        2.1581226769       -0.1506342826
 O          1.7399527385        0.0617586488        2.5876114999
 H          1.0315931348       -0.2416985949        1.9908023341
 H          1.6823568285       -0.4982734484        3.3882423656
 O          1.6182012436        2.7620041078        1.0277492353
 H          2.2372654632        2.7355374352        1.7769977822
 H          0.7286844473        2.6631367088        1.4331693504
 O         -0.6360434293        2.2357293322        2.4018870435
 H         -1.3986887801        2.1198370870        1.7950427559
 H         -0.5636944792        1.4065742033        2.9183175433
 O          2.4026031972       -1.3814288356       -5.2004941685
 H          2.2697857517       -0.4781542745       -4.8498675294
 H          1.8365823568       -1.4239566102       -5.9775532050
 O         -5.5806631620        4.3249540192        0.6690475110
 H         -5.9303308169        4.9686241196        0.0518990607
 H         -5.3999353985        3.4954463787        0.1424940469
 O         -0.7656918154       -6.4532681440       -0.8531126273
 H         -0.7139344755       -7.3455996704       -1.1960349963
 H         -0.1015100013       -5.9324847854       -1.3387586579
 O         -2.8251126888       -0.1162788777       -3.1902072024
 H         -2.8153121187        0.6972539512       -2.6304953664
 H         -2.5975144354       -0.8588553284       -2.5842739746
 O         -0.2558735356       -1.1895617480       -6.5388148463
 H         -1.2001521980       -1.2869825105       -6.7298582092
 H         -0.2547536943       -0.5966152345       -5.7564935959
 O         -4.9847044765        3.9395344299        3.4427053381
 H         -5.1576514216        4.1245571982        2.5134494986
 H         -4.0160352694        3.9079737681        3.5438687031
 O         -6.6816027931        1.6312365965       -2.7288089944
 H         -6.2770130430        0.8711270417       -3.1818706534
 H         -7.5273967115        1.3011908925       -2.3839999131
 O         -3.4412883425       -5.4656170632       -0.4032679750
 H         -2.6205884726       -5.9369748746       -0.5996819160
 H         -3.1647096884       -4.5949517296       -0.0316428261
 O         -5.9980532759       -0.0180277793        0.8175018566
 H         -5.9999065962       -0.6136883748        0.0404681218
 H         -6.9412374862        0.2229398347        0.9782032153
 O         -5.9465185563       -4.4396649214       -0.9936264620
 H         -5.2086658633       -4.9894010705       -0.6995239145
 H         -6.5721568180       -4.3603054523       -0.2625866193
 O          1.8184288678        5.4459796417        1.1244402086
 H          1.6130827600        4.5249950519        0.8662046505
 H          1.9953105969        5.9292828466        0.3055428159
 O         -2.6999119827        5.6201713776       -1.9131793936
 H         -1.8121437061        6.0031443090       -1.9595824096
 H         -2.7611775031        5.2566127617       -1.0073498061
 O          4.5771018389        2.1456178024        0.3372899803
 H          5.5358109525        2.0738330098        0.1745596791
 H          4.4802078620        2.9994407357        0.8148669045
 O          4.9556939140        3.6315463943        3.8016906380
 H          4.1345142281        3.1025722658        3.7209809578
 H          4.9270950854        4.0578934616        4.6579233972
 O          6.0126974057       -2.1540937287        3.5686368605
 H          5.0641246141       -2.3915730770        3.4424618007
 H          5.9841468426       -1.4414228696        4.2290443367
 O          3.6771662334        4.6509872079       -4.2905864952
 H          4.1212166448        4.0265912618       -4.8738259029
 H          3.8159210474        4.3188280377       -3.3896950728
 O          3.4887051127        3.6611760191       -1.6782198998
 H          3.8350764937        3.1191464370       -0.9478753894
 H          2.6347957400        3.2470576915       -1.9464094315
 O          1.0006914209        4.7473962277       -4.2519906541
 H          1.9581627347        4.8282279383       -4.4456465501
 H          0.5789049130        4.1996645333       -4.9324762785
 O         -3.0817211559       -5.3597136577        2.6129117036
 H         -2.1845165293       -5.4020504524        2.2349802462
 H         -3.6817655913       -5.5247145303        1.8805913177
 O         -2.6648677868       -3.1195927870        0.5633931352
 H         -1.8846206119       -3.3567872915        1.0757829252
 H         -2.3584404152       -2.6801750812       -0.2648989340
 O          2.9277394779       -4.9691356470       -0.0399165274
 H          2.3480138726       -4.9964164405       -0.8166929513
 H          3.6180144550       -4.3207468082       -0.2208196869
 O          1.7889459427       -4.6019429119        2.3767663489
 H          2.4719874295       -4.1227844964        2.8812328878
 H          2.2186144430       -4.8077115407        1.5209496158
 O          7.0663405720       -0.4228833069        1.7818681387
 H          6.6281474394       -1.0643758498        2.3791711928
 H          7.0094428552        0.4487830071        2.2232374385
 O         -1.9711261622       -2.2532986585       -1.8376561050
 H         -1.0716637692       -2.3091822939       -2.2084011212
 H         -2.5044215806       -2.9459484383       -2.2964359979
 O         -2.2955291172        3.7195297350        3.9082461263
 H         -1.9628835151        4.6204343570        3.8430661326
 H         -1.6721311420        3.1901600517        3.3576721059
 O          7.5763362383        0.5825486831       -2.4416335726
 H          8.3913415184        0.8713909848       -2.0061451311
 H          7.0507699204        1.3949515437       -2.6128717231
 O         -0.6576722213       -4.9997268745        1.4269989426
 H         -0.6288932435       -5.6739316954        0.7279823434
 H          0.1656780311       -5.0759305394        1.9406397947
 O          5.4450138930        0.3126712775        4.6244285336
 H          6.1888874798        0.9136100172        4.5355137309
 H          5.0185201547        0.3044471295        3.7299918101
 O          4.9948254527       -0.5569874929       -4.5319085583
 H          4.2523431460       -1.0577744814       -4.8991414316
 H          5.6963330838       -1.1781003066       -4.2969598444
 O         -2.7517211914        3.9160643055       -3.9189739649
 H         -3.5084078980        4.1056837505       -4.4735572222
 H         -2.7174770952        4.6346850208       -3.2337291113
 O          2.1593242592        1.2833075717       -4.6233002106
 H          1.5414386636        1.5923835786       -5.2920353674
 H          1.8422819210        1.6742398969       -3.7865817298
 O         -5.4233908612       -0.6345360296       -3.5609911370
 H         -4.4905250585       -0.3454047050       -3.4851911226
 H         -5.3913648089       -1.4347087406       -4.1317911138
 O          0.1094804415        1.7627544260        5.8902899748
 H         -0.0440046263        1.0872999663        5.2006589764
 H          0.9533212614        1.5482213283        6.2965762337
 O         -0.6416957917        5.3083269361        2.4205216266
 H         -1.2854782240        5.1428543137        1.7143206571
 H          0.1814919959        5.5790612222        1.9855555973
 O          1.8070797566       -1.2847918109        4.8982533059
 H          1.0001966676       -1.5784228623        5.3587510478
 H          2.2150968529       -0.5650341982        5.4231955243
 O         -6.8334928556       -0.1763924880        4.0962517225
 H         -6.1863197719       -0.8383205404        4.3811625422
 H         -6.6896882088        0.5993278492        4.6481265325
 O         -7.2365398085       -3.7309721566       -3.3405859227
 H         -6.7805496810       -4.2433452100       -2.6582890533
 H         -7.7077901144       -3.0405539742       -2.8536677615
 O         -1.1235345200       -5.3653791133       -3.8114407588
 H         -0.9037259660       -4.8761770024       -4.6178813385
 H         -0.3730835228       -5.2065003219       -3.2163717453
 O         -8.5078892620       -2.2020370719       -1.3180927581
 H         -9.3563521666       -2.6448520640       -1.2712085473
 H         -8.0213204467       -2.4862736290       -0.5021861157
 O         -5.4843221885       -1.7216008579       -1.1603320309
 H         -5.5987434973       -1.3745046028       -2.0739701307
 H         -5.6099549058       -2.6848872081       -1.1955775302
 O          3.4275833000       -2.6784533370        3.2511439740
 H          3.2064758193       -2.2323981060        2.4049366150
 H          2.9120146757       -2.2233938673        3.9421518014
 O          2.6307407633        2.3648800573        3.5264670113
 H          1.9341333856        3.0032890472        3.8465207863
 H          2.1872257920        1.5395851263        3.2353449343
 O         -4.9858578648       -2.2245776425        4.4857222456
 H         -5.0028348341       -2.3071896248        3.4953056235
 H         -5.5256949184       -2.9383536197        4.8266381484
 O          4.3944317915        4.6081082945        1.3052012980
 H          4.7168531783        4.5309754505        2.2149132124
 H          3.5085044808        5.0228769358        1.3514859157
 O          9.6061816144        1.3155306357       -0.7584368725
 H          9.6240366463        0.4978514193       -0.2147588363
 H         10.5100743740        1.6102183441       -0.8667560782
 O         -2.5635543589       -0.9439611677        2.2227651236
 H         -2.4928911017       -1.7043429172        2.8228850533
 H         -3.1515459624       -0.2907333283        2.6443544249
 O         -5.0330147175       -2.9930690925       -4.7169137884
 H         -4.4105350444       -3.4639045671       -4.1351495358
 H         -5.9104211229       -3.3448266450       -4.4748485408
 O          4.6801356441        2.1620352956       -5.1753275945
 H          5.1605620885        1.3569790181       -5.3927590140
 H          3.7734227733        1.8562261228       -4.9706852991
 O         -7.4513274498       -3.1151009618        0.9436047957
 H         -6.5504085246       -2.9084479208        1.2500616932
 H         -8.0332131006       -2.6235696522        1.5708297365
 O          7.0241245530        2.0445469378        2.8707041400
 H          6.3277584467        2.6364396454        3.1971398939
 H          7.2200898797        2.3557697196        1.9664889682
 O          9.4221028145       -0.8955960263        0.7544908976
 H         10.0321858790       -1.1098038357        1.4602052906
 H          8.5415019835       -0.7201469481        1.1816060607
 O          7.0986210946       -1.9826382996       -3.2560153952
 H          7.4982912767       -2.4116034750       -2.4786095823
 H          7.3650970623       -1.0532202562       -3.1599618561
 O         -2.8823875781        1.9951792328        1.0594575798
 H         -3.4805766895        1.7505187365        1.7916411042
 H         -3.0128370927        1.3084926819        0.3806883920
 O          3.0278717890        0.9127098046        5.8278871692
 H          2.8925756108        1.5310389595        5.0847172638
 H          3.9480055602        0.6231036507        5.7187340962
