  384
       -651.80543275
 O          3.2122812056       -3.4047748825        2.6956185516
 H          2.7135540025       -2.7008859273        3.1538893310
 H          3.7162940266       -2.9384532609        1.9892051451
 O          1.0169049088        1.7813078119       -2.9068977037
 H          1.1352425932        0.8239067006       -2.9807326845
 H          1.9238484547        2.1556968160       -2.9886976988
 O         -0.3039578653        3.8607766434       -1.4096923595
 H          0.2657101546        4.6264348857       -1.2001827897
 H          0.2647267405        3.2008382346       -1.8334318510
 O         -1.7901395751       -1.6962190972       -0.3228710939
 H         -1.7329110540       -2.6603289275       -0.4203992723
 H         -2.2964588325       -1.5371213749        0.4904312104
 O          0.4792916608       -3.4400441217        1.5563125688
 H          1.3025250001       -3.2042856294        1.1095990310
 H         -0.0587865054       -3.9103365387        0.8878655091
 O          3.2418400222       -0.2063975849        0.0032254065
 H          3.7849510806       -0.9132849562        0.4097740463
 H          3.3242397054        0.5618102103        0.5892773088
 O         -3.2088952198        2.5799668126       -2.5825581455
 H         -2.5305715332        2.0630498761       -2.1227729514
 H         -2.7685940828        3.3111576895       -3.0317404833
 O          5.5703576223        3.1879122272       -0.3195067183
 H          5.4413087894        3.5606374849        0.5700872769
 H          5.0515121790        3.7622410851       -0.9136855840
 O          3.4525240117        2.2136860711        1.3602101246
 H          4.0073208894        2.8445545478        1.8382351419
 H          3.0686708647        2.7186027399        0.6123927362
 O          3.5360682545       -4.5913697567       -3.0866412444
 H          3.4471919630       -5.1958380446       -2.3415116427
 H          2.7132821265       -4.6558623942       -3.5783044803
 O         -0.3771947307       -0.9603153396        2.7767682696
 H         -0.7374247747       -0.1031311734        3.0478736510
 H          0.3735265399       -1.1459719422        3.3656639098
 O         -1.9865836498       -3.1136173698        2.6542325558
 H         -2.0271616642       -2.5353162964        3.4407321420
 H         -1.1137305928       -2.9346291701        2.2672339867
 O         -1.8618555410        3.9429345952        1.8188088918
 H         -2.3173630125        4.6036520532        1.2574294403
 H         -1.8359159624        4.3502707371        2.7165411304
 O          1.7217248135        1.2550068402        3.1339285885
 H          2.3633400494        1.6047816050        2.4811855515
 H          1.8376089555        1.8188614440        3.9268323032
 O          2.9480907208       -5.4562212498       -0.4361459794
 H          2.6580552268       -4.5084166972       -0.3787804847
 H          2.8051060956       -5.8071920073        0.4598581770
 O         -3.9638484592       -3.6658213011        0.9851945075
 H         -3.1789579357       -3.4047468294        1.5076135000
 H         -3.8285855907       -4.5983309691        0.7107233046
 O          0.2063889183       -0.5589628907       -5.9535702225
 H         -0.1088453040       -0.4721694801       -5.0288817141
 H         -0.6005522077       -0.6378450370       -6.4820646612
 O         -1.0540023755       -4.2148426048       -0.4886873629
 H         -1.2455951602       -5.1635134026       -0.6207130368
 H         -0.4983157092       -3.9116428264       -1.2295749160
 O         -0.2672056188       -6.5191680394        1.5862455989
 H          0.6428188366       -6.2681796046        1.8083755160
 H         -0.8164012506       -6.2886014852        2.3518508912
 O         -0.9171024670        1.6659416393        3.0999143205
 H         -1.2525643210        2.3844007369        2.5496682372
 H          0.0628165549        1.6614182260        3.0051012541
 O         -2.4416952288        1.3369269127       -4.9582665227
 H         -1.6282291447        1.8710136878       -4.9999844818
 H         -3.1780186292        1.9613468841       -5.1485059100
 O         -3.5594702244       -0.1906544875       -2.9386073648
 H         -3.1154570029        0.4584381626       -3.5093342604
 H         -3.9928651404       -0.7974607281       -3.5497275114
 O          3.5219671869        2.5699873659       -2.9113484616
 H          4.0864666677        1.8552285613       -2.5324516476
 H          4.0012985045        2.9341489180       -3.6732035401
 O          2.2752460723       -2.9048256413       -0.4115350571
 H          3.0802246335       -2.5370602748       -0.8316179666
 H          1.5999474653       -2.8957005003       -1.1211667242
 O          0.7833457785        3.6762807677        1.5623885880
 H          1.1349968565        3.5734350198        0.6684826008
 H         -0.1775012044        3.8242072652        1.4850844023
 O         -1.6150602330        4.7647735702       -3.4408448064
 H         -1.2088115310        4.2317297985       -4.1524909899
 H         -1.1602080722        4.4362835117       -2.6119480752
 O          8.0335832710        1.6863555458        2.0729828465
 H          8.5056608295        0.9850615141        2.5382459191
 H          7.2317496236        1.2684525779        1.6794983911
 O         -3.8652871230       -6.2561226329        0.3090058394
 H         -3.9815341470       -6.5271747132        1.2508040089
 H         -4.7204559311       -6.3889385507       -0.1252795040
 O          7.4538943048       -0.7137740512       -3.3236261550
 H          6.6740559684       -0.7081168991       -3.9010850862
 H          7.6617664395        0.2274743205       -3.1878379298
 O          0.4447658939       -2.9426374752       -2.2967402003
 H          0.4658611081       -3.5861200582       -3.0326813698
 H          0.1515068181       -2.0893564584       -2.6709866338
 O         -2.3458367718       -2.7876885346       -3.3814834472
 H         -2.1522623655       -3.7406779480       -3.3714233981
 H         -2.9152621593       -2.6351269846       -2.5995701547
 O         -3.4441818711       -0.8526869836        1.6330586313
 H         -3.4318315221       -0.5133427480        2.5412819617
 H         -3.6580163426       -0.1184329284        1.0185149520
 O          2.3707971974       -5.8701439898        2.1674327531
 H          2.6373704713       -6.4030237996        2.9158163771
 H          2.5683729741       -4.9361167917        2.4103920798
 O         -2.1459424209       -5.5024029361       -3.2342520195
 H         -1.8737165269       -6.0769556054       -2.5075247564
 H         -3.1233792920       -5.4962201528       -3.2109931130
 O          4.7413794512       -2.1736297947        0.9709105418
 H          5.5343150215       -1.8337302609        1.4177590479
 H          5.0375767171       -2.9275161493        0.4192192791
 O          7.7400967888        4.4023172893        2.1961018394
 H          7.9785129103        3.4667307814        2.3062670855
 H          7.9798087131        4.6131538146        1.2741461691
 O          2.2231470437       -0.7540400851       -3.1128232609
 H          1.9562493753       -1.4745709238       -3.7086484585
 H          2.9935082834       -1.0999946990       -2.6351935088
 O         -1.0925073333        6.9097671113        2.4414518008
 H         -1.8241184095        6.7925468722        1.8211422532
 H         -1.3364397296        6.4314277058        3.2450024924
 O         -0.8205800904        2.6832149942        5.5435942915
 H         -0.9241478270        2.2741010228        4.6522781637
 H         -1.6527335612        2.4668511107        6.0226925453
 O         -1.8413434560        4.9129068810        4.3026206586
 H         -2.7726942503        4.7989491846        4.5545746180
 H         -1.3467586121        4.2774308197        4.8545100621
 O          1.2181822806        6.0079570316       -0.7896661848
 H          0.9094486274        6.6718156026       -1.4130641156
 H          1.1865370174        6.3614355970        0.1187746166
 O          2.4038452435        3.5315138095       -0.6653121642
 H          2.2932259052        4.4845523323       -0.7883850485
 H          2.8228994576        3.2257588539       -1.4917856985
 O          4.3960483117        5.1616295427       -1.8217809840
 H          3.6172482250        5.0975830721       -2.4091274179
 H          5.1855514393        5.1145909271       -2.3833943941
 O          4.8911262428        0.6040873085       -1.9501106073
 H          4.8811335383        0.0518021419       -2.7546373841
 H          4.2664819162        0.2218759336       -1.2956720703
 O          5.9758600519        0.6864410597        0.7531977500
 H          5.6552173853        1.4795820594        0.2913252094
 H          5.3122361697        0.4381104900        1.4329247014
 O          2.0339777566       -1.3187950950        3.8928449642
 H          2.1649094445       -0.4262133957        3.5027496539
 H          2.3457399210       -1.2440008888        4.8034955372
 O         -2.0022771819       -1.6795724677        4.9899974734
 H         -1.2042955427       -1.2373517394        5.3194561259
 H         -2.6129210726       -0.9611053975        4.7649523250
 O         -4.2340233263        0.6766642588       -0.3654204296
 H         -4.0298475978        1.6379905376       -0.3457723151
 H         -3.9539042195        0.3482493598       -1.2364814657
 O         -3.9474335102        2.3309600825        2.5497232918
 H         -3.3678427733        2.8135230992        1.9342174562
 H         -4.7807820357        2.1325663582        2.0816775178
 O          4.9885886544       -0.4555480951       -4.4509608355
 H          4.3859642486        0.0775347190       -4.9857519737
 H          4.8132431378       -1.3868803989       -4.7170618747
 O          1.8787838463        2.9546269890        5.1740042699
 H          2.2262867712        3.7810474413        4.7693928796
 H          0.9713652656        3.1186573776        5.4640053501
 O         -1.7089537340       -5.4845081969        3.7610289078
 H         -0.8549942922       -5.3037980747        4.1890039690
 H         -1.8779390964       -4.6520360993        3.2542100623
 O         -0.6315771485       -0.7156820528       -3.4031871949
 H         -1.3971119299       -1.3182644831       -3.4686547555
 H         -0.9068912063        0.0176444811       -2.8323820222
 O          9.2241164215       -1.3697696683       -0.1217204203
 H          8.2573089411       -1.3841180006       -0.3254753810
 H          9.4843533583       -2.2967076188       -0.2092059445
 O          2.3561146706        3.4140458803       -5.6121651441
 H          3.2426145697        3.7289018988       -5.8112638840
 H          2.4628086324        2.4456498848       -5.4876803976
 O          5.1465058149        4.2688900613        2.1956252381
 H          6.1232885142        4.4451049466        2.2735965031
 H          4.7808029965        5.0562686733        1.7165783392
 O          3.9237550630        1.6589638722        6.2945055592
 H          4.5402026323        1.8393410104        5.5627784325
 H          3.1441883716        2.2056570675        6.0785580116
 O         -3.9382507435        3.2767710980       -0.0364717046
 H         -3.7759428912        3.7993622355       -0.8370982862
 H         -4.6235617008        3.7559841280        0.4625051373
 O         -5.6932354357        1.6288213579       -2.7433802285
 H         -5.6968123348        1.2283605941       -3.6457610262
 H         -4.7595866586        1.8963018681       -2.5924005070
 O          0.1402281268       -0.0497217797        5.7394080174
 H         -0.0877078239        0.8856444905        5.8391181133
 H          1.0298786661       -0.1586442852        6.0857841286
 O         -4.2289491321       -2.7514839177       -1.4999377057
 H         -4.1339594914       -2.9978770219       -0.5548018593
 H         -4.8566692732       -2.0131678339       -1.5603491205
 O         -6.1948425241       -0.8470082246       -1.6710917286
 H         -6.6868321248       -1.3366971965       -2.3879568714
 H         -5.9380763045        0.0272398699       -2.0240892042
 O          9.0342435345        1.5056230772       -0.4368131524
 H          9.3502955304        0.5974467661       -0.5037071573
 H          8.7442599189        1.6206003391        0.4935830209
 O         -2.4348353920       -0.4878127144       -6.8240999922
 H         -2.4542486615        0.2294618131       -6.1311964865
 H         -2.7692569567       -0.0987614768       -7.6314890279
 O          6.6687995482       -1.3539903992       -0.8757980110
 H          6.9564296134       -1.0481061086       -1.7664022431
 H          6.3792458740       -0.5696019647       -0.3661714980
 O          1.6509981739       -2.6248076585       -5.0608555152
 H          1.1487532064       -3.4483622404       -5.0236457492
 H          1.1308706787       -1.9798416895       -5.5822771227
 O          4.3272238052        0.0200432233        2.7677363896
 H          4.6031590264       -0.6766820489        3.3794594691
 H          4.5325480836        0.8536922336        3.2269508488
 O         -5.7012395986        4.6874805525        1.4957140309
 H         -6.4698560769        4.6234291905        0.9089146854
 H         -5.9664531550        4.2111427503        2.3040814561
 O          0.0853857926        6.8613107937       -3.2615703230
 H         -0.6281871806        6.1949084185       -3.3722721196
 H         -0.1376374384        7.6062273563       -3.8179162754
 O         -4.2045980173       -6.5339978670        2.9082032015
 H         -4.7717416216       -5.7914043374        3.1729903369
 H         -3.3472721018       -6.3893604998        3.3298912193
 O         -3.6754840118        0.2951828337        4.1428840671
 H         -3.5477733859        1.1002075648        3.5954559102
 H         -4.6414607364        0.2649586867        4.2982344753
 O          2.9773840387        5.0387650991        3.9434240672
 H          2.4844446916        5.6220048667        3.3461497350
 H          3.7923344884        4.8043351961        3.4812478519
 O          4.0809696489        6.1648371105        0.7603084291
 H          3.1648807431        6.3337627264        1.0123223734
 H          4.1098961648        5.9539594247       -0.1872145965
 O         -5.8488673993        0.4817410929       -5.1177196155
 H         -5.4434660756       -0.3884774004       -5.2259545587
 H         -6.8239354929        0.3485975462       -5.0595234224
 O         -3.8580159787        5.3635575028       -1.8828600760
 H         -4.6321726355        5.1034516682       -2.4086095745
 H         -3.1111584849        5.3529116765       -2.4958515926
 O          2.1070803729        4.8827913342       -3.2790791986
 H          1.5088262638        5.6339268889       -3.3708470906
 H          2.1361082103        4.4127141952       -4.1289456469
 O          4.3643327035       -2.9117224751       -5.1972834204
 H          4.5220216599       -3.6680523887       -4.6244889151
 H          3.3977018904       -2.8342702512       -5.2816201836
 O          7.2875213598        0.3729605307        4.7412752827
 H          7.7895359137        0.5384541197        5.5378628952
 H          6.6106873496       -0.2906263984        4.9595193684
 O          6.7626152270        4.4279522371       -3.0558801218
 H          7.3935813412        4.9341472009       -2.5342634089
 H          6.9619623563        3.4878648951       -2.8341179418
 O         -3.2608139064        5.9931478600        0.7714851225
 H         -3.4052299979        5.9506226694       -0.1866942503
 H         -4.1227084463        5.8046745912        1.1686272923
 O         -6.1972419129        1.5141940043        1.2282412886
 H         -6.9026168882        0.9408774078        1.5805154113
 H         -5.6938150627        1.0177196004        0.5594227657
 O         -5.8877527064       -1.5843840923        0.9017293892
 H         -5.9413474637       -1.2187221863        0.0043293207
 H         -4.9477956030       -1.5129513555        1.1780672085
 O         -5.9049257140        4.2525989383       -3.3955111454
 H         -6.7998951235        4.5900889408       -3.4250161307
 H         -5.9514338995        3.3397277371       -3.0415659075
 O          7.1738833108       -3.8197810515       -2.2470474407
 H          7.3215420655       -3.0046942411       -2.7354354753
 H          7.9202598153       -3.9006271993       -1.6296239905
 O          8.0805561148        4.2508454228       -0.5178731734
 H          7.2073133047        3.8053883851       -0.5166007208
 H          8.7343281674        3.5499628370       -0.5983595057
 O          1.4471160069        6.2058580669        1.8816350182
 H          1.2430646504        5.2366434215        1.8541713083
 H          0.6121131750        6.6259822472        2.1631481172
 O          0.4115719006       -4.9146415816       -4.1067148743
 H          0.7228954685       -5.5880632314       -3.4585176427
 H         -0.5264859931       -5.1247740719       -4.2104799051
 O         -1.4728014846       -6.8340231337       -0.7463665144
 H         -0.9834027574       -6.9196247149        0.0998469614
 H         -2.4072590833       -6.8123649215       -0.4601144264
 O         -8.3389498988        1.8369683830       -1.9774066654
 H         -7.4126617387        1.7423265987       -2.2511767368
 H         -8.3113736136        2.5233486330       -1.2835376627
 O         -4.5218253945        2.8922407498       -5.5218180785
 H         -5.1480434490        2.1582316604       -5.6054597703
 H         -4.8985224929        3.5106194276       -4.8806026687
 O          0.6630420940       -4.2324644429        4.1667254119
 H          0.7836486939       -3.4172095723        4.6534317126
 H          0.6713439685       -3.9823439682        3.2219793301
 O          5.3684141777        2.1462904629        4.0320484572
 H          6.2473090449        1.7391532351        4.1357780120
 H          5.4710333967        2.9816123355        3.5618557542
 O         -4.1174948704       -1.8458333614       -5.1570186010
 H         -3.5853415900       -1.4842762940       -5.8881652914
 H         -3.4668992340       -2.3259822410       -4.5988809214
 O          7.2608307683        1.8588557017       -2.4260482127
 H          7.9068690640        1.7814933231       -1.6932332981
 H          6.4091789522        1.5461116702       -2.0732474982
 O          9.4147677175       -0.6826147226        2.4009438619
 H          9.4431190192       -0.9026496290        1.4323736112
 H         10.1903122649       -1.0709839667        2.8026535151
 O         -0.2780239108        2.9412040188       -4.8915798373
 H          0.1822506626        2.4954904219       -4.1373321292
 H          0.4315929210        3.2184014736       -5.4810308975
 O         -6.3256244939        0.4674456783        4.4535468726
 H         -6.6361848618       -0.3790864229        4.0418560553
 H         -6.6296078359        0.4580754084        5.3612437819
 O         -6.7782774846        3.1834814617        3.5702444647
 H         -6.5651400622        2.2589718174        3.7678886621
 H         -7.6876411901        3.1725114553        3.2368420389
 O         -4.7674339819       -4.9915304701       -2.8432828196
 H         -5.3368253675       -5.5074931249       -2.2509541858
 H         -4.5864574369       -4.1577910977       -2.3536058645
 O         -6.3403875325       -6.0436062185       -0.8663315863
 H         -6.5881998573       -5.2750630891       -0.3032941177
 H         -7.1476625380       -6.5230965706       -1.0507915945
 O         -6.9934793653       -4.0249012104        0.7658456127
 H         -6.4804377841       -3.1866199681        0.7494179572
 H         -6.9112485867       -4.3499024704        1.6672669715
 O         -8.3883445836        0.1901347242       -4.4560397540
 H         -8.6760232334        0.7611250115       -3.7360390473
 H         -8.3274888816       -0.7134907869       -4.0948058667
 O         -7.6372303144       -2.1673060340       -3.3432874624
 H         -8.1642315918       -2.7037422632       -2.7187686298
 H         -7.1576263424       -2.7940520547       -3.9436134518
 O         -5.4300810602       -4.0022325951        3.2728440844
 H         -4.8200886931       -3.9157695765        4.0378668314
 H         -4.9020918118       -3.7775159336        2.4784688450
 O         -8.8656381631       -3.2102261469       -1.1812213894
 H         -9.1512815883       -2.3349820968       -0.8884525935
 H         -8.3056379173       -3.5606995019       -0.4741350373
 O          5.3912550711       -4.0776783070        4.1085783294
 H          6.0750134204       -4.3369511116        3.4761168059
 H          4.5594145792       -3.9801064064        3.5975423909
 O         -8.4649039416        0.2092965741        1.9500923570
 H         -8.6449508060       -0.0969010780        1.0266702844
 H         -8.3923343686       -0.5741171599        2.5046493567
 O         -3.2502061010        2.0001039022        6.3230768333
 H         -3.7312067750        2.7468048065        5.9238398857
 H         -3.3706984260        1.2546239888        5.7141575351
 O         -7.0303174925       -1.7919134834        3.2893737792
 H         -6.5994822422       -2.6224402500        3.5652517761
 H         -6.6762669408       -1.6499124657        2.3887772353
 O         -4.3400057738        3.9044558323        4.6791005424
 H         -5.2802388765        4.1021039453        4.6909326509
 H         -4.2103852812        3.3517037923        3.8746765436
 O         -8.6739002107       -0.4397309707       -0.5857305902
 H         -8.8394673300        0.3841153342       -1.0861420591
 H         -7.7713907062       -0.6893399661       -0.8633698606
 O         -7.7562139286        3.4139345170        0.1499611197
 H         -8.4647961144        3.4155432022        0.8075842345
 H         -7.1264698564        2.7320685890        0.4793145175
 O          4.2981658044       -2.1663925498       -1.9689911531
 H          4.3071941743       -3.0013879216       -2.4582281566
 H          5.1836845399       -2.0183756477       -1.5796290497
 O          5.1294920586        3.4004981119       -4.9762165107
 H          5.6388720268        2.6413508505       -5.2655984520
 H          5.7381179511        3.9493984226       -4.4552007201
 O         -9.2643641468        2.7418896467        2.3862108521
 H         -9.0667489767        1.7898138596        2.2649747967
 H        -10.1608385735        2.8055377884        2.7138832049
 O         -6.1291989478       -3.7119819836       -4.8219661648
 H         -5.4505982239       -3.0976986455       -5.1414002768
 H         -5.6697352352       -4.3119665223       -4.2046554287
 O          1.0542810147       -6.4965620249       -2.0976884381
 H          1.6961248386       -6.2302888369       -1.4135690809
 H          0.2772524463       -6.8412044379       -1.6453937936
 O         -3.5923505189       -3.9386621998        5.2145414233
 H         -3.0613535256       -3.1352279465        5.3230319208
 H         -2.9675122083       -4.6381913744        4.9727454237
 O          2.6020422560        0.7359850782       -5.3388761568
 H          2.5023363491        0.3235450319       -4.4547663305
 H          1.8719617498        0.3707995714       -5.8568878125
 O          3.0820077505       -0.7663360698        6.3626577112
 H          3.4171788516        0.1861586756        6.3466792317
 H          3.1126510670       -1.0474657334        7.2766561691
 O          5.4633083809       -4.3966667441       -0.2605780888
 H          5.9830053959       -4.2738074669       -1.0803706904
 H          4.6883194090       -4.9529874950       -0.4454260107
 O          7.2069442123       -4.2687767821        1.8064716298
 H          6.5197124292       -4.4316054246        1.1344083634
 H          7.1537756248       -3.3139480310        2.0206698297
 O          6.9246385592       -1.6792930382        2.4795547941
 H          7.8006488650       -1.2508851938        2.5090423111
 H          6.5384939155       -1.5633603582        3.3531006030
 O          9.0386417141       -4.1253733765       -0.1589674842
 H          8.4271201031       -4.2237607332        0.6117596906
 H          9.5593178529       -4.9270727487       -0.1977200269
 O          5.3104475696       -1.5519320572        4.8583829458
 H          5.3654990894       -2.5303975699        4.7250940582
 H          4.5559695515       -1.3919305068        5.4489386745
 O         -1.3493952405        0.9655706633       -1.3989048369
 H         -0.5443579474        1.0814729239       -0.8565407498
 H         -1.7097196672        0.1483819227       -1.0211180654
 O          0.5096871072        0.2649692397        0.3753270391
 H          1.3321731398       -0.1628160805        0.1140821728
 H          0.1247500905       -0.2946513329        1.0664176028
 O         -3.5997720002       -0.6344689289        7.4527791773
 H         -3.0604436374       -1.1253971450        6.8243002751
 H         -3.2567714134        0.2641534202        7.4829046650
