  219
       -371.68568231
 O         -2.8703566744        2.6299997621        3.5755836969
 H         -3.6199427793        3.2667357743        3.6656092443
 H         -2.8884667165        2.3793896325        2.6373032079
 O          6.5109153610       -1.7672376411       -2.3651230970
 H          5.8028106070       -1.7288607998       -1.6754401050
 H          6.0706500486       -2.1236066043       -3.1429164219
 O          1.7688371522        0.6144561443       -4.4252239529
 H          2.4789071542        0.3493392022       -3.7975540965
 H          0.9153580006        0.5746406444       -3.9610464040
 O         -5.7888114520       -3.9276360735        2.3138386251
 H         -5.1322472846       -4.2423107044        1.6583145541
 H         -5.2915310118       -3.3912322010        2.9481572043
 O         -1.1982678575        2.8885275125       -0.8941271380
 H         -0.9538648616        3.0818438457       -1.8143429728
 H         -1.2069332029        3.7429525593       -0.4320816964
 O         -1.5216328625       -1.8306852670       -4.9678528123
 H         -1.9901901088       -2.5259374548       -4.4762626351
 H         -2.2201001130       -1.3004383513       -5.4059885016
 O          4.1292352545       -1.3218449682        2.0461128465
 H          4.9752050547       -1.1686253161        2.4936178474
 H          3.6325691765       -0.4829776376        2.0853162935
 O         -6.8282874144        2.2968692431        2.6308912059
 H         -6.5448101581        1.3756695526        2.7167992631
 H         -6.9702656757        2.4601503863        1.6877747933
 O          2.3363340614        3.1267179940       -3.6886259436
 H          3.3038457384        3.1631823565       -3.6804193984
 H          2.1248519283        2.2470477803       -4.0734738379
 O         -0.3694331028        3.7640718536       -3.3865256581
 H          0.5538573178        3.5818192363       -3.6107221592
 H         -0.9096427126        3.3864938143       -4.1075042107
 O          2.4453077207        0.7031924982        2.6734910673
 H          2.5618427318        1.6615258526        2.8413933057
 H          1.6294999951        0.6501404611        2.1356081202
 O         -0.6996016804       -5.1254096274       -2.4701377815
 H         -1.4986859965       -4.7126100599       -2.8477419670
 H         -0.9611635952       -5.4711534164       -1.6042598252
 O          2.2400369737        4.5523585356       -1.3399939023
 H          2.1600542514        4.0276849158       -2.1570125993
 H          3.1699507000        4.4271745791       -1.0587923499
 O         -0.7996983843        0.3217737492       -3.5457238707
 H         -1.4488139656        0.3956042845       -2.8225160449
 H         -1.0190058293       -0.5103822719       -4.0223603230
 O         -1.4326191289       -1.8850537784       -1.5966388256
 H         -1.5142910512       -2.2456001017       -0.6860994967
 H         -0.5363335508       -2.1353089252       -1.8892733500
 O          4.5112688585       -1.7711172217       -0.6462993348
 H          4.4533729098       -1.7054961145        0.3183757732
 H          4.0555697288       -2.5845117666       -0.9200940150
 O         -3.9969577518       -4.4283337917        0.3399635184
 H         -4.4791410808       -4.4417532025       -0.5005057617
 H         -3.6851260887       -3.4979046362        0.4092520227
 O         -0.1241454599        5.9752822281       -1.8394902839
 H         -0.3020111819        5.2646380392       -2.4856012429
 H          0.8132482121        5.8565896610       -1.6306888895
 O          1.0692021150        3.7089355941        0.8721281618
 H          0.3163361146        4.3048017090        0.9879837090
 H          1.5072758593        3.9932773010        0.0365557167
 O          4.8254555868       -4.6845683221        0.4777615266
 H          4.4869218267       -4.6125653138       -0.4273995157
 H          5.6080069032       -4.0987568882        0.5182337566
 O          4.1246052627       -2.4481215879       -3.9702378608
 H          3.9885096815       -1.5744157194       -3.5302117774
 H          3.3612832737       -2.5555145820       -4.5458587895
 O         -2.0352712932        2.2478392968       -4.9311456382
 H         -1.4938423900        1.5354137897       -4.5233265055
 H         -2.6779532782        2.5104235808       -4.2457963096
 O         -2.1229281925       -0.3708393003        2.2348020551
 H         -1.2275965074       -0.7116888246        2.3861545643
 H         -2.5043532634       -0.2420950679        3.1297746009
 O          2.6172693599       -0.3990773548        5.0489869235
 H          2.6486979172       -1.3495535857        4.8732310397
 H          2.4658955135        0.0058834727        4.1545671541
 O         -1.5809662398       -5.6620358346        0.1312990010
 H         -2.5273417505       -5.4434087326        0.2414432336
 H         -1.2458505230       -5.9141894024        1.0115526960
 O         -6.3835234353       -1.4548516576       -1.2052965786
 H         -6.9015278643       -1.7857908378       -0.4500291800
 H         -5.8758265672       -0.7139970484       -0.8304729550
 O          0.0828805424       -1.4856560862        3.3538463477
 H          0.0440287086       -0.9204960004        4.1506405529
 H          0.9461039832       -1.9436741761        3.3630535651
 O          0.9303045970       -3.0732871009       -2.2971661485
 H          0.3846000974       -3.8931920630       -2.4147336059
 H          1.1066381912       -2.7285270198       -3.2015982720
 O          6.7115772723        3.7704366003        1.1159634023
 H          6.2510204266        3.4569667346        1.9071587778
 H          6.0090559406        3.9874113301        0.4732934315
 O         -5.0130552523        0.4783702888        0.1544291978
 H         -4.1671767922        0.9640942303        0.2863797058
 H         -5.3189826635        0.2147336899        1.0602553833
 O         -1.1442454045        5.2718799541        0.5189714478
 H         -0.8081885079        5.7043022550       -0.3007565990
 H         -2.0036095610        5.6526141513        0.7070578383
 O          4.9504673720        0.8049744254        5.2512450782
 H          4.0685355194        0.3457167883        5.2359181864
 H          5.0833490872        1.1204897907        6.1449501357
 O         -1.8993778885       -3.2845281203        3.1815642654
 H         -1.2048901826       -2.6732204906        3.4968096992
 H         -1.8068490448       -3.2116613280        2.2047017424
 O          2.5299546061       -4.8805594114        1.7136716834
 H          2.2611960162       -5.7645462781        1.4573588003
 H          3.4563854696       -4.7848793313        1.3668470796
 O          7.8991076972        1.8635852990       -0.2501558492
 H          7.4706251515        2.5917926625        0.2774640688
 H          8.7993702574        2.1417871294       -0.4138899502
 O          3.4889558674       -3.9885300108       -1.8788991469
 H          3.8810158827       -3.5927671107       -2.6862375608
 H          2.5337444157       -3.8540967372       -2.0013206855
 O         -0.0660305799        0.2559335191        5.4129973648
 H          0.8532691045        0.1196080030        5.6803940252
 H         -0.0737022697        1.0922872496        4.8927683765
 O         -5.1421983070       -0.0230937446       -3.3341784604
 H         -5.5924434543        0.8337772823       -3.2444488063
 H         -5.7065763297       -0.6662580666       -2.8909585558
 O         -4.3030047773        4.1808723693        0.5583547604
 H         -3.7229109541        3.4156605444        0.6870232681
 H         -3.9333316413        4.6818060056       -0.1907128394
 O         -0.2055207393        2.3410683847        3.7544665739
 H         -1.1317526075        2.6437098840        3.8122058569
 H         -0.1489752154        1.8719373847        2.9059636493
 O         -2.9161661680        0.3397371077       -1.8011168598
 H         -2.5233017671       -0.5137030429       -1.5459128326
 H         -3.6880111896        0.1235045349       -2.3575738538
 O          6.9801608601       -2.9929363486        0.2760713611
 H          6.7844343462       -2.0665170841        0.4997599772
 H          7.1635901824       -2.9734639870       -0.6692162104
 O          6.3939783592       -0.7461148752        3.5654358379
 H          6.7608508677       -1.4985732874        4.0297908248
 H          5.9687172423       -0.1655620873        4.2245052043
 O         -1.0494263708       -3.1175120142        0.6903841869
 H         -0.0853007750       -2.9315315081        0.7211963372
 H         -1.1518711724       -4.0442457153        0.3850875633
 O         -3.5096081400        2.8717641881       -2.7372960274
 H         -3.1721927177        2.1474427873       -2.1858988724
 H         -4.4731270744        2.7522429423       -2.8019395203
 O         -2.8511559265        0.1869742611        4.7553074268
 H         -2.0123304493        0.1440108571        5.2310563945
 H         -2.9821168965        1.1264698376        4.5133343647
 O         -4.9733736228        4.1832023044        3.2947692328
 H         -4.8171972763        4.4658481747        2.3827890324
 H         -5.7176293103        3.5526866569        3.2352724433
 O          2.3346526693        3.3351653571        3.1789208976
 H          2.0038208269        3.5873805405        2.2885068052
 H          1.5269175046        3.2217498169        3.7007546611
 O          4.5292964241        1.4646082907        0.6966438263
 H          4.7117912994        1.8318949118        1.5800525467
 H          5.1781119450        0.7519179537        0.5559143133
 O         -7.4371359067       -2.2807461369        1.1824039569
 H         -8.3239822687       -2.5392453882        1.4300141097
 H         -6.8226023717       -2.9702399279        1.5777599963
 O         -3.4560322406       -1.8288270449        0.3923752588
 H         -4.0690947470       -1.1410598653        0.1050378355
 H         -2.9326174339       -1.4299484907        1.1102302345
 O          5.1474148740        3.0469493526       -3.3909487572
 H          5.7124352892        3.4812012353       -4.0294406867
 H          5.5864719522        2.2016398764       -3.1567685671
 O         -0.4580389657       -5.5707497667        2.6186798667
 H         -1.0406565394       -4.8866517366        2.9996080029
 H          0.4199577648       -5.1829415214        2.5810854873
 O          5.0107695563        2.6386200882        3.1196573358
 H          4.1662031776        3.1050384452        3.2184793824
 H          5.0659696496        2.0251222639        3.8688104219
 O          6.6499905695       -0.2747704378        0.8413807974
 H          6.8061366848       -0.2832460890        1.7936227065
 H          7.2616150694        0.3696632137        0.4497213442
 O         -3.1391320109        5.3054363949       -1.6141299666
 H         -3.1889085422        4.4757179474       -2.1294057913
 H         -2.3755820810        5.7874989031       -1.9390320502
 O          6.4003488920        0.8999180004       -2.4329146704
 H          6.8846080308        1.2257473864       -1.6588700662
 H          6.5803789081       -0.0680898598       -2.4705537938
 O          3.7459166284       -0.0738873720       -2.8110739895
 H          4.6100067762        0.3298770427       -2.6623359910
 H          3.3037170717       -0.1115655367       -1.9014191010
 O          4.7111729098        3.7073998489       -0.7370587172
 H          4.5588641857        2.8318060183       -0.3103005445
 H          4.9494745322        3.5175136598       -1.6590270372
 O         -5.9192574091       -0.3816467413        2.4373464811
 H         -5.2729079443       -0.9483706069        2.9049818122
 H         -6.5932020276       -0.9900455054        2.0844134519
 O         -2.7924892591       -3.5076893982       -3.1728374510
 H         -2.3874942826       -2.8746649257       -2.5334651832
 H         -3.6948526850       -3.6552889837       -2.8561141066
 O         -2.8320579116        1.8045084627        0.8928594598
 H         -2.2091773201        2.0739645891        0.1863462815
 H         -2.4423602010        1.0075334139        1.3200098638
 O          2.4756516716       -2.7567539137        3.5470471482
 H          2.4395772446       -3.6437313077        3.1698959651
 H          3.0838354635       -2.2708273327        2.9421688191
 O          1.5380801735       -2.6849359133        0.3915731702
 H          1.4836967823       -2.8267535195       -0.5661511927
 H          1.9673050062       -3.4621336020        0.7872482312
 O         -3.4558638706       -0.0827647564       -5.6477914229
 H         -4.0921462906       -0.0940921755       -4.9194297611
 H         -3.0313574444        0.7916167509       -5.6314172591
 O         -6.2064268576        2.4686356725       -2.8002688424
 H         -6.7957341407        3.0512634359       -3.2775882440
 H         -6.3981812860        2.5933963395       -1.8301252445
 O         -6.4348765593        2.6997307227       -0.1991012376
 H         -5.7694415120        3.3719913794        0.0616512075
 H         -5.9774681302        1.8359053043       -0.0848324354
 O         -4.2201020605       -2.0565581962        3.7362378356
 H         -3.3959068039       -2.5476598527        3.5115368543
 H         -3.9539934342       -1.4181016913        4.4091058565
 O         -5.3037770122       -3.7701562128       -2.0079382784
 H         -6.0151690864       -4.1933489677       -2.4874643069
 H         -5.6411504571       -2.8922447825       -1.7146998750
 O          1.2677705183       -2.0838071047       -4.7706595366
 H          0.3459201851       -2.1398431797       -5.0640012967
 H          1.4973640313       -1.1370023020       -4.8331006713
 O          0.2264388550        1.1581660815        1.2035153275
 H          0.4481922584        2.0646700516        0.9073045864
 H          0.2761131461        0.6141649891        0.4122251172
 O          2.3691519550        0.0409080815       -0.4189692190
 H          3.0259774206        0.5307288571        0.1008480145
 H          2.2543499141       -0.8236605345       -0.0007536549
 O          3.7934629267        5.3117655290        1.7756058934
 H          4.0403889687        4.8818583930        0.9531754343
 H          2.9063660395        5.6554153534        1.6634980869
