  282
       -473.35944615
 H         -1.1019543100        1.2199125784       -1.3590567657
 C         -0.7950323493        0.8358512603       -0.3903350385
 H         -0.5214715509        1.6604405866        0.2630390313
 C          0.4060693098       -0.0745359270       -0.5831640431
 H          1.1961820313        0.4792217831       -1.0752556123
 H          0.1325701554       -0.9263998588       -1.1983984725
 O         -1.8725806442        0.1539983185        0.2137392272
 H         -2.3921471801       -0.2404212237       -0.5011942418
 N          0.8905128100       -0.5676148475        0.7178097105
 H          0.3611557757       -1.4274051609        0.9510774124
 H          0.7112420281        0.1269255478        1.4837433259
 H          1.9088229095       -0.7638546811        0.6362278313
 O          2.0104666864        5.3291774750       -2.1328788603
 H          2.1078839110        5.6022965442       -1.2010644544
 H          1.7499988149        4.3876290179       -2.0717509306
 O          0.2036233031        0.9382938536        2.8596702123
 H          0.9118829661        1.5718874287        3.1077985639
 H         -0.5060721785        1.5116404507        2.4976498167
 O          5.3356634271       -1.7526673864        1.7619051353
 H          6.0098209097       -2.1450213883        1.1699094406
 H          5.7357586135       -0.9655409196        2.1773986468
 O         -4.3727298650       -1.8720267800       -1.2795050959
 H         -4.1084791401       -1.8553160794       -0.3350864448
 H         -5.3161679969       -2.1143327063       -1.2857625385
 O         -2.4457817638        5.4145419594        0.3526964428
 H         -3.1154161405        5.1654904162        1.0166897702
 H         -2.9203906871        5.5496564306       -0.4778292042
 O          2.1992761730        2.1356750497       -4.5380663749
 H          1.2327755797        2.0340094385       -4.4625112419
 H          2.4595645927        2.4364102803       -3.6595079451
 O         -0.9260319910       -2.5756701033        0.9476121065
 H         -0.9628256697       -3.5250792187        1.2190626824
 H         -1.0265324615       -2.5853631468       -0.0301642510
 O          2.4001701610       -3.1993825716        1.6883755391
 H          2.5695602856       -2.3127228479        2.0729215893
 H          2.0674077405       -3.0753243996        0.7746818577
 O          1.3921158712       -2.9729470832       -0.7903855959
 H          1.7809171258       -2.6626742770       -1.6128611832
 H          0.9841337385       -3.8362287303       -0.9903781993
 O         -1.4056493603       -1.8834005200        3.5574637103
 H         -1.2968930252       -1.8946183645        2.5970465399
 H         -2.3674199876       -1.9117855752        3.7441495803
 O         -1.3748512147       -1.6236937615       -5.8508645657
 H         -1.3582366481       -1.6486515303       -6.8069961047
 H         -2.0606284721       -0.9525242757       -5.6035382500
 O          5.3928229810        3.3150981007       -0.8057792643
 H          5.0929087830        4.0487656250       -1.3740637270
 H          4.7752960872        2.5757890251       -1.0049038988
 O         -4.8423658143       -5.0804636141       -1.4276765766
 H         -4.6742956167       -4.5812671561       -2.2464835658
 H         -3.9909626869       -5.5054042662       -1.2479624747
 O          1.4051078283        2.6392648548        0.8066156386
 H          1.1951274929        3.5125791902        1.1497560450
 H          2.2731441655        2.3677764490        1.1646695217
 O         -0.6895547221        3.8827045285       -1.1306134294
 H         -1.3695502617        3.2569521301       -1.4156642546
 H         -1.1411529776        4.4864878532       -0.5218871058
 O         -1.5642507761       -2.8623826782       -1.5937454846
 H         -1.0975246201       -3.0468489640       -2.4239929856
 H         -1.9591417722       -3.7223629568       -1.3427608188
 O          1.0705341790       -5.2940427819        2.8230851355
 H          1.5281239678       -4.5282296708        2.4285987306
 H          0.6836525609       -4.9628978155        3.6563264177
 O         -2.3138165304        3.2001537698        4.6119807149
 H         -1.8303630320        2.4719217738        5.0508857176
 H         -3.2364929558        2.9117034438        4.5392594493
 O         -2.6146216320       -0.3183909441       -2.4535942556
 H         -3.3929167779       -0.8194366274       -2.1409078603
 H         -1.8832841926       -0.9448393017       -2.5309149606
 O          3.6445243900        1.4732453077        1.7147374379
 H          4.3721149809        1.1876635361        1.1504800489
 H          3.2894982308        0.6740336926        2.1355686088
 O          2.3930000203        5.6232867862        0.5419753361
 H          2.9517981574        5.1343790303        1.1634299720
 H          1.4983438401        5.5876356657        0.9159682803
 O         -3.3013958184        5.2526098129       -2.3716181594
 H         -2.4392619481        5.3961003623       -2.7992965204
 H         -3.9494598764        5.2316635097       -3.0891683555
 O         -3.0328170763        0.2571093220       -4.9799700792
 H         -2.8331066717        1.1875981903       -5.1392627467
 H         -2.9202825184        0.1246292960       -4.0034821417
 O         -3.8046862415       -3.4412367667       -3.4119382261
 H         -2.8936753654       -3.6710458658       -3.6219751774
 H         -3.7855529469       -2.8602858078       -2.6239491817
 O          1.8022953111        2.7535111212        3.9260661117
 H          2.1658945492        2.1701388208        4.6217629751
 H          2.5444269585        3.1751359332        3.4575266029
 O          7.1279294374       -2.7944726380       -0.0101134419
 H          6.7919397263       -3.6670343692       -0.2814154520
 H          7.0731830355       -2.2494632039       -0.8097911790
 O          8.6952689829        2.7189706407        1.6320550391
 H          8.9770207464        2.1833776802        0.8682365725
 H          9.4820880557        3.1185230314        2.0011609266
 O         -4.8357099687        4.2228327884       -4.3900461876
 H         -5.4426005348        3.8277686449       -3.7109703889
 H         -5.3762342618        4.4222736274       -5.1534470657
 O         -3.5869955564       -2.0851045235        1.2591459053
 H         -2.6383980169       -2.2530246084        1.1143223132
 H         -4.0247251665       -2.9542781318        1.3717643053
 O         -2.3338862738        3.0498910332       -4.7660275278
 H         -1.7526708371        3.7978941818       -4.5579587934
 H         -3.2366376242        3.3991059530       -4.6773348961
 O          3.7057056279        4.2465906534        2.6467813091
 H          4.0361551103        4.9328986674        3.2272489615
 H          4.4687000894        3.6890156461        2.4001312729
 O         -7.2167715377        1.2887908730        3.2037458155
 H         -7.4065836442        1.5060864920        2.2653773729
 H         -7.9852602401        1.5487775153        3.7106709648
 O          2.6935674914       -0.8374157012        2.9192471016
 H          1.9017810692       -0.8841484881        3.4866021894
 H          3.4373866361       -0.7929114170        3.5609519427
 O         -2.1742050444       -5.3775885305       -0.8264323667
 H         -2.0339992626       -5.3649063736        0.1374856131
 H         -1.3109640039       -5.6328072618       -1.1857819309
 O         -0.2481598223        1.7355415024       -3.4825017316
 H         -1.0887593148        2.0799514114       -3.8186215407
 H         -0.3075020256        0.7603551344       -3.4606468265
 O          6.4478801146       -0.9882341732       -2.0002679523
 H          6.2423327354       -0.3698655658       -1.2568010688
 H          6.3969553874       -0.4561222115       -2.8036561246
 O         -4.6582255129        2.3900506270        3.3783102446
 H         -4.1501619793        1.6526853925        2.9818647093
 H         -5.5677262612        2.0676131391        3.4537379451
 O         -4.9234208600       -4.4021962910        1.2551011639
 H         -4.8975995900       -4.6829485713        0.3215535872
 H         -5.8305477337       -4.0971852275        1.4139018192
 O         -1.5410082787        2.8009794183        2.0986361411
 H         -1.8699888328        3.0179057846        3.0002378641
 H         -0.9844540128        3.5524193648        1.8154654586
 O         -3.1627674435        0.2995538933        2.5504611798
 H         -3.5287840872       -0.5432240803        2.2331279896
 H         -2.5239124634        0.5318442012        1.8582019179
 O         -5.9505423244       -1.0850528272        2.6157856545
 H         -6.4345829984       -0.3570509817        3.0356950302
 H         -5.5730246418       -0.6891442187        1.7927391118
 O         -7.4358210108        1.8581396571        0.5993894264
 H         -6.9897329397        2.7147636153        0.4416442953
 H         -7.9097882272        1.6401701930       -0.2386459137
 O          3.4853673593       -0.8740956990        0.0715620867
 H          3.6545815980       -1.5577099048       -0.6115622925
 H          4.1343323824       -1.0899812059        0.7744052330
 O         -2.9416129026        2.5732909890       -1.9801617242
 H         -3.5513881945        1.9049962801       -2.3296557334
 H         -3.2656606564        3.4619177791       -2.2218351348
 O         -3.2618003475        0.1794528258        5.3009664656
 H         -2.3848112328        0.3344280510        5.6687777001
 H         -3.1672438086        0.3368480509        4.3452981705
 O          4.2902711439       -5.0336306053        1.4520794079
 H          4.7601582766       -5.0889258205        2.2875511051
 H          3.6632484109       -4.2765200479        1.5355599593
 O          5.4581872036       -4.7984773770       -0.9714776530
 H          5.1057216251       -4.9719392785       -0.0795930405
 H          5.0120681715       -3.9814588085       -1.2744485724
 O          4.5146618278        5.0213068453       -2.7149711166
 H          4.9034207445        5.8848776238       -2.8505874698
 H          3.5375149482        5.1758664751       -2.5368792749
 O          7.4616382922        2.1566499279       -2.0978606890
 H          6.8388678542        2.7839028015       -1.6846226613
 H          6.9507659206        1.7096786218       -2.7951863090
 O         -6.9631406728       -0.7941649022       -3.0623397463
 H         -7.0870230691       -1.5700696012       -2.4993243237
 H         -6.4729307212       -1.1089229529       -3.8553531919
 O          3.8604322361        1.2500777093       -1.5446350742
 H          3.0034898983        1.7158827840       -1.6366481516
 H          3.7424909332        0.5239115116       -0.8975026115
 O          4.7972011517        3.2438620802       -4.8019712053
 H          4.7310615411        3.9179924349       -4.1009734806
 H          3.8985648665        3.0703714212       -5.1054971493
 O          2.3053526188       -2.1086169392       -3.4510446516
 H          2.7210032949       -1.4516228646       -4.0790726892
 H          2.1976804234       -2.9599665289       -3.9071731746
 O         -8.3288385498        1.3732335846       -1.8458466040
 H         -8.0250736175        0.5733069450       -2.3003045286
 H         -7.8731060508        2.1118100822       -2.2782512398
 O         -5.8032794612        3.9712571934        0.1483720707
 H         -5.7401439432        4.7081747734        0.7602415128
 H         -4.9905786112        3.4359281163        0.3233229441
 O         -0.8774264780       -3.7500399923       -4.0751668630
 H          0.0032465047       -4.1245615939       -4.1870927754
 H         -1.0341646507       -3.1309712276       -4.8049736016
 O         -6.8472837398       -2.9418723777       -1.2083574330
 H         -7.1342008575       -2.9343672956       -0.2790776507
 H         -6.5357923920       -3.8360272532       -1.3904018981
 O         -0.7797004966        5.0611689964       -3.4991127212
 H         -0.5991039164        4.6115667178       -2.6359492044
 H         -0.0077446379        5.6063955318       -3.6580341754
 O          5.5027816922        0.9815012783       -3.6507692647
 H          4.8760452534        1.0664810745       -2.8999462195
 H          5.3570724954        1.7972267592       -4.1883912216
 O          1.9257524260       -4.7323672365       -4.1142036159
 H          2.1885359415       -5.1535023385       -4.9335438256
 H          2.4813215522       -5.1487002827       -3.4153792621
 O          6.2946762721        0.5106692190        3.0085212878
 H          6.0327281435        1.3820110625        2.6513271485
 H          7.2370422193        0.4160744985        2.8344116473
 O          0.8591772505       -1.3286379541        4.8332596837
 H         -0.0236584354       -1.2942102340        4.4152038284
 H          0.8995521509       -2.1847428749        5.2662588179
 O          2.4039181487        0.8147516638        5.6884270838
 H          1.8058183518        0.0712576609        5.5062811974
 H          3.2912069957        0.4420443767        5.6051136589
 O          6.0005760122        3.0241282848        1.8447295335
 H          5.7552869061        3.1930750546        0.9152621681
 H          6.9667569841        3.1028753786        1.8768117562
 O          3.3973716355       -0.2817291945       -4.9176796892
 H          2.8810458509        0.5493892693       -4.9052313073
 H          4.2822065668       -0.0180828243       -4.6114348663
 O          1.6613354385        2.6762030808       -1.8030630265
 H          0.8361510023        2.4338369438       -2.2614368272
 H          1.4371424815        2.7547151872       -0.8406856382
 O         -1.3218033500       -5.0375477835        1.7047162612
 H         -1.9837166681       -4.9779057257        2.4276631482
 H         -0.4727036350       -5.3212004308        2.1035147780
 O          4.6028077364       -0.6908203792        4.7870623064
 H          4.8270477327       -1.6372644893        4.7809212235
 H          5.3205829706       -0.2226625285        4.3300132242
 O         -0.0009603794        4.7913894195        4.2928873689
 H          0.6572490286        4.0710902785        4.3061828552
 H         -0.8369424817        4.4020463186        4.5800697593
 O         -6.2893455802        3.1969832077       -2.4550481165
 H         -5.8215893030        2.3284108241       -2.3443955572
 H         -6.1643365281        3.6659738162       -1.6149693050
 O          3.3522944166       -6.0075215354       -2.2297723739
 H          4.2173604188       -5.6661685384       -1.9248807692
 H          3.0138844699       -6.5259467121       -1.4933063237
 O          9.3576558694        1.1689634029       -0.5533613350
 H          8.6623801317        1.4923996768       -1.1768130554
 H         10.1875016037        1.2360960171       -1.0256657532
 O         -3.9994349388       -2.1607082676        4.2499649970
 H         -3.8945485474       -1.4392189410        4.8997867398
 H         -4.7055637041       -1.8635089004        3.6471695806
 O          2.1574418701       -6.5027545644        0.4885010315
 H          1.6323714469       -6.5077333593        1.2980593007
 H          2.9950943164       -6.0851421742        0.7575238675
 O          4.6342001483       -3.2852924180        3.8675747568
 H          4.8813331386       -2.8069186795        3.0480297578
 H          3.6918725447       -3.4568965643        3.8129087783
 O         -0.6784641148        1.1866188032        5.4150657587
 H          0.1089174024        1.3573878748        5.9349113698
 H         -0.3673802138        0.9458276377        4.5151441625
 O         -3.6785550038        2.4512519175        0.5395284748
 H         -3.3204315500        2.4356602690       -0.3758409304
 H         -2.9155321968        2.6183698986        1.1272814939
 O         -0.0414683195        5.0321488100        1.6862545050
 H         -0.7879561720        5.5427656162        1.3488075269
 H         -0.0143172194        5.1300054440        2.6714160588
 O          4.3256006877       -2.5269692230       -1.7865112544
 H          5.1223744607       -1.9854850424       -1.9905162327
 H          3.6816407601       -2.4013189751       -2.5086377742
 O         -0.1306170758       -0.9490627705       -3.5047429764
 H          0.7625348100       -1.3299252886       -3.4343132891
 H         -0.4488537596       -1.1519812300       -4.3955744024
 O          0.5080047972       -5.4639934198       -1.3663704305
 H          0.8658535338       -5.7152018953       -2.2201365823
 H          1.0636614603       -5.8953937692       -0.6812225679
 O         -4.2531330497        4.8347255686        2.3406073798
 H         -4.3970737622        3.9133889707        2.6546434892
 H         -4.0283652334        5.3454219956        3.1182220252
 O         -5.2080554865       -1.5684177733       -4.9135479989
 H         -4.5486622486       -0.8733172175       -5.0483571326
 H         -4.7420956107       -2.3157699497       -4.5014391981
 O          6.0765457214        0.5865218034        0.1136013700
 H          6.3831476823        1.4398752027       -0.2059099769
 H          6.8173734046        0.2060538353        0.6313877783
 O          8.2207713545       -0.5589768140        1.2637041542
 H          8.8337503834       -0.1076115154        0.6639912191
 H          8.1592976721       -1.4763212270        0.9666248953
 O         -0.3961737748       -4.0776947747        4.7384023380
 H         -1.1264594345       -4.6409780881        5.0004791604
 H         -0.8088452175       -3.3153582723        4.2738538544
 O         -3.2674588314       -4.7040877477        3.4919121793
 H         -3.9548846558       -4.8626629348        2.8292787653
 H         -3.5065329007       -3.8525941342        3.8944337012
 O         -5.0956722886        0.8802957823       -2.1666290300
 H         -5.0779859709        0.5773469894       -1.2353851490
 H         -5.7259515491        0.2693616275       -2.6041498873
 O         -7.3067139313       -3.0587003057        1.5015632889
 H         -8.1318745049       -3.2011545444        1.9638630222
 H         -6.8439117828       -2.3060479259        1.9492668530
 O         -5.2673802725        0.3258131040        0.4725511107
 H         -6.1167413882        0.8184140077        0.5158143828
 H         -4.5753847848        0.9943877795        0.6627076101
