  450
       -763.97092366
 O         -0.0456096689       -0.5788794069       -0.9829869196
 H         -0.9689049560       -0.8661398388       -1.0231861702
 H         -0.0507193691        0.3766162803       -0.8815541616
 O          0.9705472479        1.9426425332       -0.7562470998
 H          0.4489885580        1.9057244192        0.0723611308
 H          1.4429541621        2.7862035005       -0.7574502986
 O         -2.4499269925       -1.8703911966       -1.3000743234
 H         -3.1095311985       -2.2609474023       -0.7162979001
 H         -2.9478595023       -1.3229361784       -1.9313413760
 O         -0.7038649952        1.6937870152        1.2715981844
 H         -0.5062199574        1.7145178472        2.2231465505
 H         -1.2545571711        2.4710549477        1.0823071081
 O          4.1514135337       -0.1484571850        3.0349103519
 H          3.4492473538       -0.3393466588        3.6836785506
 H          4.4633578184        0.7534042810        3.2127860799
 O         -1.1459800311        1.3195175272       -2.8740686384
 H         -0.4320711501        1.9864137554       -2.8562184657
 H         -0.7148083493        0.5256803497       -3.2535730136
 O         -3.7520899113        1.8201067049        1.6555962581
 H         -4.4462262728        2.3251648282        1.1933759529
 H         -3.1323282355        1.5616726888        0.9490574574
 O          1.8070126576       -2.5383819927       -1.8979269196
 H          2.6075542528       -2.8922250709       -1.4960507318
 H          1.0851310372       -2.6552319140       -1.2313646846
 O         -0.9359735212        4.4646320529        3.1681765388
 H         -1.1196174251        4.3668541466        2.2180255946
 H         -0.1877506077        5.0823558815        3.2705317748
 O          2.5245347240       -1.7012283892        0.9309157417
 H          2.5697386492       -1.0498743172        0.2054031336
 H          1.7148694031       -1.4782710483        1.4380398140
 O         -0.1017801787       -3.0818526764       -0.1814112157
 H         -0.9409813094       -2.6612549951       -0.3853910604
 H          0.0497433414       -3.0275374503        0.7745579302
 O         -4.4225982734       -3.2724565674       -2.7337712984
 H         -4.0367894919       -3.9256776308       -2.1214847370
 H         -4.3087544735       -3.6343934710       -3.6249407129
 O          4.3564539817        2.4938784835        2.7594763893
 H          4.4596005992        2.6788284278        1.8179592614
 H          4.9282227598        3.1145488910        3.2586688780
 O         -6.7219753026       -3.4522217229       -1.3400042911
 H         -6.5565527414       -4.2276222718       -0.7877819984
 H         -5.9055998926       -3.3191065802       -1.8695182528
 O         -2.5828045407        0.9259953082       -0.5975464565
 H         -3.4344731490        0.5193127448       -0.8361732853
 H         -2.1203911334        1.1550508236       -1.4223986091
 O         -7.0021024488       -1.6791466728        0.6315042578
 H         -6.9150065789       -2.2889921552       -0.1385304522
 H         -7.6128026577       -2.0865037707        1.2480473955
 O         -3.0638468559        6.1315584848        3.2914777028
 H         -3.7325753497        5.7056848878        2.7267148857
 H         -2.3712027920        5.4596294334        3.4335059782
 O         -2.7342372045        2.7822131343       -4.3248407546
 H         -2.1419530308        2.1196044437       -3.8939948329
 H         -2.1831116896        3.2889647804       -4.9450158603
 O         -2.0488834148        3.9648405807        0.7497020327
 H         -2.9512914151        4.1991910215        1.0451089623
 H         -2.1267705978        3.8738123191       -0.2141175764
 O          4.3245235063        0.6598488155        5.7622895670
 H          5.1712088738        0.3131780995        5.4298926077
 H          3.8917490250       -0.0923755287        6.1944266559
 O         -2.1061425233       -0.0829498699        3.8895524960
 H         -2.3763808748        0.8403469708        4.0329596828
 H         -2.0632749789       -0.2184291382        2.9186854883
 O          1.6497412126        3.7275968867        2.1364029180
 H          1.0927270823        4.3457545536        1.6414572006
 H          2.4124197524        4.2362551528        2.4485273374
 O         -4.1419398157       -2.4808985261        0.7747622657
 H         -4.7218627019       -1.7853631175        0.4209633502
 H         -4.6365167072       -2.9497539482        1.4663835397
 O         -1.8747578729       -4.9020941704        1.0585964634
 H         -2.5739505080       -4.8446629972        0.3825647073
 H         -2.1301780776       -4.3244073050        1.8031067632
 O         -3.0621328005        2.4326849427        4.1455037943
 H         -2.5984153995        3.1717303908        4.5742567290
 H         -3.1353135693        2.5831316450        3.1871506810
 O          2.7157232289       -0.0636174078       -1.2534743246
 H          2.2667235393       -0.8060226882       -1.6952513298
 H          2.0446338912        0.6348237061       -1.1057536662
 O          5.1841670366        0.4064684084       -2.2381726974
 H          4.2667803924        0.2645031956       -1.9188794743
 H          5.4716690911        1.2916608756       -1.9437212908
 O         -2.4260811182        4.0757206453       -1.9125914168
 H         -1.5460585273        4.4533861005       -2.0940499673
 H         -2.7130462508        3.6545384330       -2.7416371141
 O         -5.0336196184       -0.1793208655       -0.4849840851
 H         -5.5628592450       -0.4692852347       -1.2526807424
 H         -5.3985628602        0.6885907222       -0.2491098628
 O          4.7114841534        3.2588094500        6.5858380198
 H          4.7307807742        2.3117284313        6.3764052104
 H          3.8823114932        3.3696614255        7.0866496615
 O          0.4442196027       -0.7386360601        2.2333615964
 H          0.7556750270        0.1011849106        1.8494325744
 H         -0.4361092216       -0.8877133995        1.8461589816
 O          2.4399417481        7.4572235745        0.4291922555
 H          3.2839638581        7.0032643136        0.3552256134
 H          2.2184763893        7.7738762986       -0.4824668999
 O         -0.1298521877        5.3858790897       -2.0055490387
 H         -0.1736102594        6.1085733869       -2.6516716374
 H         -0.0752181525        5.7447698043       -1.1058260027
 O         -6.7510887334       -0.7955327595       -2.3891915127
 H         -6.7647413436       -0.3944359092       -3.2789355736
 H         -7.0677820545       -1.6961578009       -2.4583093765
 O         -7.8859606344        3.9598304048       -0.7089640632
 H         -7.9799746104        3.3330869363       -1.4458553723
 H         -8.3347549272        3.5651873932        0.0560582424
 O         -4.1632036994       -1.6797661399        3.9990972723
 H         -4.6591493824       -1.1920541032        3.3106608593
 H         -3.3884320330       -1.1021559647        4.1982252026
 O          4.5393913661       -2.4050362449       -1.1007437733
 H          5.3648316640       -2.8177944587       -0.8044979752
 H          4.5069132901       -1.5670075241       -0.6058240116
 O         -3.6518341306       -5.1405538679       -0.9311283083
 H         -3.5446175459       -6.0547534928       -1.3260817192
 H         -4.4716313326       -5.1816679891       -0.4061884843
 O          0.7399269016        3.1764005277       -3.1690573927
 H          0.4753060866        3.9261027814       -2.6081759098
 H          1.6324812916        2.8977248120       -2.8783628906
 O          4.9474312661       -0.1701778276        0.4857590094
 H          4.5413594662       -0.3328866930        1.3570750455
 H          4.5366885137        0.6646011664        0.1618762676
 O         -1.6254560866       -2.6495959867       -3.9114099032
 H         -1.3189090183       -3.3383320257       -3.2951519996
 H         -2.4797028423       -2.3712156859       -3.5689472810
 O         -5.5380047463        1.5827752092        4.5341596051
 H         -4.6224544031        1.9379720154        4.4558464610
 H         -5.6209984395        0.9397242212        3.8106555106
 O          0.0206298649        1.5504381682       -5.6555448901
 H          0.7246836145        0.9753360019       -6.0104089365
 H         -0.4185975788        1.9403292176       -6.4254318866
 O         -4.8799362647        1.9593875464       -2.5536407204
 H         -4.3929443805        1.1737639691       -2.8716055279
 H         -4.6117216776        2.7334612019       -3.0686094271
 O          2.6339593977       -4.2675593639        0.3205687679
 H          2.5209042633       -3.3205404372        0.5597860167
 H          2.8201943818       -4.7623860586        1.1391352800
 O          2.2446842465        2.9962702325        7.7450158051
 H          1.9711322317        2.0998722606        7.5029325867
 H          1.6836675751        3.5938618350        7.2323639639
 O         -2.6928075236        5.9791624196       -4.3864499684
 H         -2.3130483788        5.4555244976       -5.1065936012
 H         -1.9715426808        6.5377296896       -4.0793813536
 O          4.4505879071       -2.8338360685        2.3699973137
 H          3.8892911776       -2.3374578032        1.7394615127
 H          3.8240568685       -3.0487141266        3.0866696694
 O          2.5161212840       -3.1070082144        4.1527208352
 H          2.3062329688       -2.1768945833        4.3895197030
 H          2.2617609542       -3.6712755586        4.9019929804
 O         -1.1866200411       -4.7056018306       -2.1996709910
 H         -0.4860754160       -4.7996989827       -1.5216154076
 H         -2.0183666036       -4.6846814762       -1.7142173394
 O         -1.9112551922       -0.1839422457       -5.3467690804
 H         -1.5562075413       -1.0539262254       -5.6116931185
 H         -1.1519385765        0.4545731486       -5.3561499397
 O          2.1276772821        1.1943246291        1.5622292869
 H          1.8905311390        2.0792739148        1.8993688697
 H          2.7701809821        0.7944031988        2.1639008012
 O         -3.6460096336       -0.3523488708       -3.2932728928
 H         -4.3118173082       -0.8704450006       -3.7703399592
 H         -2.9398785428       -0.1869552610       -3.9495211631
 O         -1.6372347910       -7.3420360821        1.9972831440
 H         -1.7875664270       -6.4712851150        1.5522455753
 H         -2.2485313785       -7.3362674786        2.7449081204
 O          5.6358207905       -5.0462185639        1.3232428856
 H          5.1677395270       -4.3027833431        1.7526748987
 H          4.9974542647       -5.7563864208        1.2404169738
 O          0.5316052607       -3.4629673985        2.4238544586
 H          1.3807748513       -3.3263793255        2.8842579509
 H          0.3397560173       -4.4109114545        2.5341061489
 O         -5.6057924187       -3.8259236819        2.6904886567
 H         -6.3151591141       -3.1868842384        2.9190767745
 H         -5.2668017028       -4.1449315299        3.5510850137
 O          2.9905828609       -5.9534535590        2.3811199690
 H          3.4634418792       -5.7977816933        3.2166597049
 H          2.0572178310       -6.0747423824        2.6373882497
 O          4.3552643137       -0.0414724439       -6.9029956414
 H          4.8459042549        0.2747210120       -6.1210604075
 H          4.5785632764       -0.9859185748       -6.9674231046
 O         -5.4721963721       -0.0693969180        2.3458669768
 H         -4.7860206643        0.5710378318        2.0256282371
 H         -5.8954913204       -0.4379972827        1.5547528191
 O         -6.4592734123        3.5566495525        2.7891549445
 H         -7.1876374583        3.1550173515        2.2926791604
 H         -6.2294986990        2.9349254308        3.4963971438
 O         -1.2189441239       -4.9637936902       -5.4484234949
 H         -0.5837533247       -4.4750051483       -4.8933296380
 H         -1.2155246897       -5.8573804903       -5.0760003404
 O          0.2842793550       -0.8143208162       -3.5843275565
 H         -0.3288995450       -1.5315740347       -3.8406453364
 H          0.3450192664       -0.8868780930       -2.6053701280
 O          6.4423169125        3.5394182983        1.1420809838
 H          6.6639920546        2.5889958938        1.3056088293
 H          7.0604523461        4.0444930256        1.6702785715
 O          3.4719817715       -1.7519171254        6.7838286542
 H          2.5025878253       -1.9198814307        6.6944177205
 H          3.6773043059       -1.8400728729        7.7135111136
 O          3.9686131693        2.2362065170       -0.0524112889
 H          3.1433388445        1.9285952261        0.3784809203
 H          3.7294046170        2.4073402548       -0.9816493540
 O          0.4305164673        5.7365479998        0.6653420513
 H         -0.4112612240        6.1814618991        0.9377676590
 H          1.1283064885        6.4229424685        0.7300621220
 O          7.3401166160       -1.1055459290       -1.8185141193
 H          6.4753365734       -0.6357921280       -1.8173144850
 H          7.2839392147       -1.8056223883       -1.1501084090
 O         -1.5352526670       -8.7676334506       -0.3868071156
 H         -0.6666172559       -8.5990362786       -0.7845013553
 H         -1.5142704967       -8.3788091065        0.5016393426
 O          1.1178003054        6.2132221954        3.6671101288
 H          0.8674248653        7.1018603376        3.3348087417
 H          2.0450257937        6.0874877067        3.4202508261
 O         -3.5702111946        0.1684062715       -7.2854670873
 H         -2.9009343667        0.0775739055       -6.5433156220
 H         -3.1899779255       -0.2740299614       -8.0457161702
 O          2.6070635892        0.4103848107       -4.1847133237
 H          1.7077819154        0.0512677314       -4.0596517533
 H          3.1983353525       -0.3592679123       -4.0953119981
 O          6.8434110584       -1.5496821239        2.5460671539
 H          6.9564924389       -0.6847322280        2.1199135959
 H          5.9098358681       -1.8221433436        2.4390983152
 O          4.6100797255        5.3114725110        0.1138678015
 H          4.9391557098        5.4634194981       -0.7848723150
 H          5.1893091375        4.6207864317        0.4794294442
 O          0.0597024868        6.7731498354       -4.3573141548
 H          0.6088929273        7.5485127937       -4.4714456509
 H          0.4682923852        6.0498630454       -4.8547846051
 O         -7.3802183261       -1.9692401556        3.5108569008
 H         -7.0236147644       -1.1308051248        3.1967515879
 H         -7.1154828823       -2.0259671103        4.4504584971
 O         -4.8743373410       -4.4846091814        5.2442092958
 H         -4.0126786491       -4.1123132819        5.5211211298
 H         -5.5267488243       -3.8878973931        5.6345413674
 O          3.6943198224        5.4312121050        2.8436854681
 H          4.0946561684        5.6245264800        1.9894183265
 H          4.4084088235        5.1505988446        3.4361545356
 O         -1.1068284152        8.0404861512       -2.0443404166
 H         -1.4109995924        8.9463519077       -2.0428917290
 H         -1.8493084258        7.5035910909       -1.6990856858
 O          5.2318978568        5.1977036651       -2.6332714586
 H          4.3105373184        5.4756803690       -2.8184071982
 H          5.5136032777        4.8050191302       -3.4696276210
 O          5.0897201805        3.2908599204       -4.5943381691
 H          4.3660252380        3.1449877618       -5.2351930375
 H          5.6308628018        2.4896833990       -4.6596050416
 O         -4.9296674772        2.1067684712       -5.7160303893
 H         -4.1393754410        2.3332993119       -5.1814998187
 H         -4.6119803366        1.5194354478       -6.4101922813
 O         -3.2753317859       -7.4836603294       -1.9649121675
 H         -2.6624840670       -7.3761506188       -2.7150361365
 H         -2.7688741198       -8.0375881280       -1.3304886350
 O          0.9185714119        4.3528956152        5.6615212353
 H          1.4735214490        3.6665097810        5.2416506250
 H          1.0357849400        5.1478740431        5.1187949685
 O         -4.5144325751        4.7577700812        1.4228917637
 H         -5.2364966908        4.3178447612        1.9202960760
 H         -4.9029704946        5.0349503866        0.5745436808
 O          6.6650024755       -2.1155071335       -4.1933205041
 H          7.1019066129       -1.7441549614       -3.3988093433
 H          5.7093165768       -1.8848536946       -4.0815469416
 O         -5.9158432091       -5.3630092299        0.5564832040
 H         -5.8240561804       -4.8207337366        1.3753092666
 H         -6.1339923444       -6.2534031038        0.8288971792
 O         -4.8576764494       -1.6022554817       -5.4858180102
 H         -4.4522221212       -1.0871616290       -6.2000645292
 H         -4.4639908575       -2.4854269358       -5.5065816555
 O         -5.2527202541        0.3862330897        6.8730252255
 H         -5.3474347411        1.0542178405        7.5503497955
 H         -5.4065716956        0.8426350082        6.0072395919
 O         -6.0262847832       -2.0529275603        5.8441577379
 H         -5.2601431457       -1.9123952482        5.2353489184
 H         -5.9834524459       -1.3039348931        6.4504101266
 O         -1.1849059795        1.4301818590        6.2205176440
 H         -0.8802028405        1.5482664324        5.2863814611
 H         -1.5477263370        2.2866390364        6.4666130279
 O         -4.8395474634        4.5437797179       -3.5514364850
 H         -4.0681281161        5.0909264503       -3.7973758178
 H         -5.3174253422        4.3666161951       -4.3628071425
 O         -2.5547231708       -3.4512488496        6.3168291278
 H         -2.6117685333       -3.6456296663        7.2520171723
 H         -2.5580537937       -2.4676406125        6.2594287797
 O          1.7912188729       -4.8694772603        6.1212390868
 H          0.9569994919       -5.3080554331        5.9003796418
 H          2.5199055409       -5.4220849272        5.8041048380
 O          1.9091484952       -0.5609849777        4.4656887208
 H          1.2010080196       -0.5061343732        3.7965995744
 H          1.6186806933       -0.1050832001        5.2789558609
 O         -0.6141633387       -2.2322320658        4.5357503434
 H         -0.1476982722       -2.4295076745        3.6986689029
 H         -1.0678436785       -1.3793742269        4.4078019041
 O          7.1150739107        0.9748348963        1.3325358181
 H          7.7689368573        1.0215773883        0.5909051755
 H          6.2992449213        0.5693833114        0.9318783153
 O          0.8840081699       -7.8510568439       -1.5723015892
 H          0.6311568543       -7.0303308194       -1.0881452740
 H          1.6782498195       -8.1370527219       -1.0897662294
 O          1.1884349076        0.4774554338        6.8595063182
 H          1.0119737864       -0.3883491237        7.2410217829
 H          0.3025814095        0.8798277740        6.7141486808
 O          5.7191486492        4.1590616348        4.2975536403
 H          5.3288916800        3.9757104723        5.1838679264
 H          6.4986741625        3.5762130803        4.2602621204
 O         -5.6240829002        2.4851762560       -0.0613342828
 H         -6.4052743264        3.0527891101       -0.1416381369
 H         -5.2016515899        2.4824106462       -0.9394647147
 O         -8.5904505143        2.3919904849        1.4265132639
 H         -9.4407252986        2.2676138718        1.8447040273
 H         -8.4716336845        1.6262913859        0.7960911427
 O         -3.0624096141       -6.2285352798        4.0870374480
 H         -2.9141321373       -5.3236005597        3.7217844235
 H         -3.8798931608       -6.1467867034        4.5855819690
 O         -7.5687200074        1.9609561275       -2.5681033330
 H         -6.5859414518        1.9224229792       -2.5642455596
 H         -7.8270920718        1.5632738977       -3.4023637100
 O          0.5292396407        8.4520872210        2.3324337691
 H         -0.3093128514        8.2201910097        1.9043564425
 H          1.2194839741        8.4057044075        1.6592750191
 O         -3.0949800999        6.5236887966       -1.0131426065
 H         -2.9160281371        5.6181988801       -1.3530711096
 H         -4.0570796489        6.5690354454       -0.9684623109
 O         -1.6945673769        7.1410367272        1.2463578566
 H         -2.2162904059        6.8912197687        2.0462088550
 H         -2.2751394547        6.9629106356        0.4830744331
 O         -5.6077146204        5.4497393670       -1.0373613581
 H         -5.3462201415        5.0806883525       -1.8992680703
 H         -6.5157080667        5.1423356087       -0.8962453836
 O         -3.7696098220       -4.2075483800       -5.2464429381
 H         -2.7979658335       -4.4001540460       -5.2389212515
 H         -4.1961653227       -4.9912353934       -5.5906828907
 O          0.8971422862       -4.0001486399       -3.8972886273
 H          1.3185736659       -4.8563342760       -3.6843545202
 H          1.1598968902       -3.3923899118       -3.1681349407
 O          2.2337680257        4.3661244758       -0.8366315342
 H          1.5459198458        4.8145232696       -0.3246165000
 H          3.0854245381        4.5558268418       -0.4042702000
 O          1.2880632150        4.4264161605       -5.3424106412
 H          1.8804755504        3.8423836251       -5.8395365199
 H          0.9826875388        3.8456171414       -4.5876187608
 O         -0.5274888002       -0.2523576737       -8.4459401112
 H          0.3754086115       -0.1577901165       -8.0925097144
 H         -0.8670492403       -1.0362382362       -7.9886981162
 O          4.0751522702       -1.8257621601       -3.6965553453
 H          4.1743581938       -1.9933026322       -2.7351074585
 H          3.7064665516       -2.6371792057       -4.0788669647
 O          1.5916767846       -2.7510331456       -6.0613480594
 H          2.2987370009       -3.2532017377       -6.4658162359
 H          1.3700842955       -3.2043814114       -5.2046526985
 O          1.6965388581        8.0026595886       -2.0340895055
 H          1.9965629183        7.2115383753       -2.5199261609
 H          0.7267568785        8.0162826748       -2.0641903797
 O          5.9039689926        0.6703266681       -4.7597784673
 H          6.6294305846        0.0502384081       -4.8624119502
 H          5.5388524923        0.5080499816       -3.8564394289
 O          2.6255805411        5.6666310959       -3.1424656722
 H          2.3840389797        5.0962242762       -2.3770933594
 H          2.2771436797        5.2388025477       -3.9402372450
 O         -1.3381282194        4.2946254098       -6.1437591046
 H         -1.4457895018        3.7500226718       -6.9344562645
 H         -0.3815816734        4.3350694422       -5.9575531103
 O          3.1422647386       -7.6508238964       -0.0009354655
 H          3.6138763267       -7.0127424366       -0.5561835470
 H          2.9973144927       -7.2085306237        0.8448865146
 O          5.1152303031       -2.6824970524       -6.5916127968
 H          4.5979518108       -3.3169486917       -6.0747357373
 H          5.9176059494       -2.5351281508       -6.0802619213
 O         -1.7665195879        4.1620423711        5.8282478125
 H         -2.1102623315        5.0520737531        5.7445074318
 H         -0.7880787077        4.2361741992        5.7625913969
 O         -8.3790725062        0.5041149839       -0.3349723415
 H         -8.0549434010        0.8621747221       -1.1810998521
 H         -7.8200226093       -0.2637255619       -0.1249979635
 O         -2.5722980447       -3.7045474520        3.3293762240
 H         -1.8306533675       -3.3334512865        3.8426126081
 H         -3.2942076285       -3.0560912156        3.4606719501
 O          3.2887525087        2.4965939716       -2.6944393764
 H          3.0709401795        1.6425483715       -3.1308001011
 H          3.9563546735        2.9136468962       -3.2682237610
 O         -1.5795914692        2.1426943630       -7.8598242802
 H         -1.1521629952        1.3446273423       -8.2404345794
 H         -2.4919581779        1.8722277146       -7.6980931157
 O          1.6905834805       -0.1826982450       -6.8747569251
 H          1.5922581365       -1.0595629397       -6.4644083843
 H          2.6593436268       -0.0757804998       -6.9637526717
 O          8.4723327479        1.1819765269       -0.9018131302
 H          8.2675025750        0.3192467427       -1.3091109555
 H          7.9011583403        1.8238240448       -1.3484474512
 O          3.8365964728       -4.3709224597       -4.7556018255
 H          4.6365883683       -4.5609596990       -4.2338368200
 H          3.2133061717       -5.0722756206       -4.5261646819
 O          6.6879177623       -0.5080515427        5.0117791269
 H          6.8375124032       -1.2191773082        5.6364856724
 H          6.7829763591       -0.9145288442        4.1184719818
 O          3.0079521965        2.3943784910       -6.0378420785
 H          3.3630043525        1.9217008930       -6.7943279912
 H          2.7543527249        1.6940500861       -5.3965299149
 O         -1.0255009473       -2.3597420574       -6.7181197720
 H         -1.4295575846       -3.1803202564       -6.4189119912
 H         -0.0741398239       -2.4840137102       -6.5427747716
 O          6.2794901472        2.8051590436       -1.5694819005
 H          5.9313943656        3.5861959787       -2.0251653638
 H          6.2334365341        3.0154697925       -0.6256986944
 O          4.1718365452       -5.5980604819        4.8519535548
 H          4.8788806605       -6.2297498506        4.9789291120
 H          4.5740112248       -4.7050477559        4.9975673258
 O          0.4119808614       -5.6462308287       -0.2564086133
 H          1.2024090694       -5.0982177722       -0.0741865551
 H         -0.2803890882       -5.3544714757        0.3574120364
 O          6.9410947408       -3.0351942902        0.1152724388
 H          7.0981415364       -2.5580878038        0.9457951480
 H          6.6594883323       -3.9219469978        0.4006343722
 O          2.2822751174       -6.1945741607       -3.2781833061
 H          2.9646542717       -5.9579219904       -2.6124231609
 H          1.7544557565       -6.8902393278       -2.8479236036
 O          7.4013984496        2.0342424974        3.9251580756
 H          7.2525022598        1.3054839149        4.5393944416
 H          7.4109847659        1.6272017765        3.0475346690
 O         -1.1115155538       -6.9796521991       -3.5583165799
 H         -1.0766363758       -6.1261365846       -3.0610427010
 H         -0.4519587993       -7.5444972919       -3.1436924689
 O         -6.7466753930        0.3099665856       -4.8374654278
 H         -6.1611935446        1.0597718998       -5.0750761651
 H         -6.3104436120       -0.4648928363       -5.2162750053
 O          2.4262898154        2.3342050690        4.6056112560
 H          2.9345759032        1.7619046797        5.2000693539
 H          3.0293400881        2.5330417189        3.8676667569
 O          4.1376306825       -5.4909273111       -1.4849103267
 H          3.7093897004       -4.8752826142       -0.8528210608
 H          4.8788179175       -5.0303110688       -1.8974720657
 O          5.2584560788       -3.1884512136        5.2504844912
 H          4.5938216965       -2.6652043448        5.7360769431
 H          5.3090902023       -2.8162346646        4.3634574969
 O         -0.8515766308       -5.4553355264        5.4603038337
 H         -1.2294870789       -4.5885679541        5.6919511846
 H         -1.6198944103       -5.9572449031        5.1269988692
 O         -2.0627909027       -0.8798929627        1.3715975564
 H         -2.7850622362       -1.5139265858        1.2088763153
 H         -2.1105885786       -0.1963474804        0.6758992905
 O          0.4078267201       -6.0505740717        3.1266116529
 H          0.0180569532       -5.8515665735        3.9966146857
 H         -0.2184059546       -6.6582501166        2.6811825364
 O         -0.1141457099        2.0063121893        3.8743970603
 H          0.8386706334        2.0355815989        4.0831550500
 H         -0.3835670997        2.9378264234        3.7312383132
 O         -2.7504797500       -0.8257917446        6.5861714102
 H         -2.1615950793       -0.0781312695        6.3922320691
 H         -3.6335087376       -0.4472362848        6.7105757977
 O          0.8716494686       -2.3324860583        6.7543972972
 H          1.0277033078       -3.2808418510        6.8325844793
 H          0.2982884201       -2.2347650599        5.9566908113
 O          6.1137982066       -4.5130042307       -3.2200451793
 H          6.8591801840       -5.1096484632       -3.2603117312
 H          6.4208288464       -3.6393425933       -3.5744476632
