  99
       -167.93891168
 O          0.7995542007       -2.6957596277       -2.5113575471
 H          1.0748126974       -2.9289882478       -1.6005816644
 H         -0.1663340008       -2.7743057669       -2.4883842456
 O         -4.3700447764       -2.9086784347        1.3511885668
 H         -5.0806974336       -3.4771099174        1.6496123017
 H         -4.7008469696       -2.4239467093        0.5758634519
 O         -2.9492380159       -0.1978080943       -2.3873680498
 H         -2.3616348772        0.1187776375       -3.0961293660
 H         -3.0086761912        0.5517581598       -1.7604224465
 O         -3.2566261090        2.0729791424       -0.8408279402
 H         -2.8820314310        2.0823680432        0.0740164486
 H         -2.7034068645        2.6731429833       -1.3560528071
 O          0.6770106969       -1.6954571084        2.2235635507
 H          0.3411541140       -2.4159337329        1.6744446222
 H         -0.1099957718       -1.1613817232        2.4791474728
 O          2.5131271740        3.6912124541        0.6608550663
 H          1.7193228251        3.3535295032        1.1246198640
 H          2.6282584987        4.6015778692        0.9357674903
 O         -1.0604202549        0.9559433955       -4.0218861186
 H         -1.2940627400        1.3778618327       -4.8490925322
 H         -0.9512883468        1.6926115430       -3.3503807993
 O          0.6048952560        1.4297032612        4.4073265453
 H          0.7354973582        1.8270137615        5.2680817331
 H          1.2847717587        0.7151475052        4.3250723455
 O          4.9527757868        0.8524030049       -1.3565083913
 H          5.0709891671       -0.1067132412       -1.4551279341
 H          4.3124290790        1.1147806948       -2.0381232684
 O          1.3391305251       -0.4199017916       -4.0085236026
 H          0.4871793548        0.0371717904       -4.1232721895
 H          1.1465641907       -1.2135657870       -3.4771079740
 O          3.0632152341        1.4599844076       -3.2829643214
 H          3.4737768550        1.7555239631       -4.0969753562
 H          2.4344321485        0.7393801280       -3.5333787934
 O         -1.5820456449       -2.8854357563        0.8273715161
 H         -2.3956410187       -3.2763423034        1.1672227552
 H         -1.6047442399       -2.9907786048       -0.1381478318
 O          4.1953941388        1.5399757667        1.0568042499
 H          4.5758699368        1.3198066387        0.1685193983
 H          3.8181663725        2.4302751702        0.9692279428
 O         -3.6994913584       -0.9415171816        3.3542005608
 H         -3.8802794256       -1.6413380222        2.7090706488
 H         -4.1708761812       -0.1539830903        3.0381542361
 O         -5.7477275742        1.3629805262       -0.2201740988
 H         -4.8721653306        1.6920829508       -0.5252318378
 H         -6.4096478650        1.9492851427       -0.5889382467
 O         -2.7491420671       -0.4509391622        0.6460501011
 H         -3.5462600120       -0.6955488677        0.1562695985
 H         -2.2957958498       -1.2848583866        0.8718747799
 O          1.6965583208        3.5378337589       -2.0250627000
 H          2.2539678673        2.8929176979       -2.4887386773
 H          2.0636205258        3.6387712611       -1.1332955579
 O         -1.9403286310       -2.6517941994       -1.9297089558
 H         -2.5502846477       -3.2261329206       -2.3941563139
 H         -2.2816903183       -1.7350360950       -2.0406384916
 O         -2.3646762667        2.1426858952        1.6949392690
 H         -3.2392752026        2.1623999192        2.1059976255
 H         -2.0049610260        1.2672410098        1.9590081794
 O          5.0384921194       -1.8887902254       -1.6451352161
 H          4.4227486867       -2.1523834178       -2.3702693309
 H          5.8623914190       -2.3472588691       -1.8149256500
 O          2.3269663142       -0.5482691412        4.0949047620
 H          1.8311461332       -1.2001365763        3.5771260656
 H          3.2205712022       -0.5269341622        3.7187246511
 O          3.3612001167       -2.5684635631       -3.5971545699
 H          2.5036278283       -2.8786799156       -3.2704112623
 H          3.1574627062       -1.8775080940       -4.2334071729
 O          4.7721574528       -0.4516732078        2.7686333805
 H          4.7045071396        0.3666385843        2.2398642164
 H          5.6178204739       -0.4300409990        3.2175610011
 O         -4.9793140202        1.4062397065        2.4288073071
 H         -5.7069394652        1.7012235548        2.9773997930
 H         -5.3171599611        1.3208210416        1.5175631212
 O         -1.2573584799       -0.0160927174        2.9267789086
 H         -2.1142152597       -0.4260539372        3.1979072447
 H         -0.8656271937        0.4215060377        3.6942174894
 O          0.4387989408        2.5073915212        1.9292869608
 H          0.4836701554        2.2303852451        2.8653984982
 H         -0.5030216033        2.5598019706        1.7084728036
 O          3.5936468958       -1.9174940948        0.6980975384
 H          4.2143803441       -1.9299536057       -0.0478903933
 H          4.0764233370       -1.5963039218        1.4715554320
 O         -5.0112701945       -1.2274179750       -0.7953228006
 H         -5.5027669662       -0.4143257363       -0.5918338756
 H         -4.5326445387       -1.0449027569       -1.6154364901
 O          1.4335865550       -3.3455132708        0.0264463802
 H          1.6051236935       -4.2681310049        0.2153995670
 H          2.2138737400       -2.8457022038        0.3434967902
 O         -0.8507485982        2.7333725297       -2.1249573512
 H          0.0112083836        3.1961456951       -2.1714664179
 H         -0.7426166501        2.1005681979       -1.3803652146
 O         -0.6331722701        1.0714568199       -0.2193453649
 H          0.2721143119        0.7063411642       -0.1205832834
 H         -1.2606836415        0.4105445094        0.1025456675
 O          1.7861284383        0.0402790535       -0.0159264433
 H          2.5090144699        0.5874132144        0.3138860859
 H          1.6382884804       -0.6360294437        0.6592421969
 O         -1.6257145475        4.5591088762        0.3726041783
 H         -1.0502249255        4.1558808201       -0.2851320044
 H         -1.8575859275        3.8474941623        0.9805596782
