          33
 SCF done      -0.59107708
H            -0.5425054727           -1.1597997900            0.9180874644
C            -0.6112510744           -0.5412957354            0.0100749194
H            -0.5391309006           -1.1969145827           -0.8712437589
C             0.5103659226            0.5037878907           -0.0094871850
H             0.3911098900            1.1518925379            0.8600967265
H             0.3944399668            1.1152671221           -0.9056412656
O            -1.7891827199            0.2100258331           -0.0077307049
H            -2.5646584661           -0.3620748052            0.0026734605
N             1.8637423300           -0.1172781082            0.0059475216
H             1.9871274394           -0.7237038561           -0.8163107149
H             1.9839790218           -0.6890763987            0.8531042569
H             2.5930831826            0.6072401006           -0.0077051388
O             4.1492634975            1.2023810481            0.0932736623
H             4.7679693880            0.8725399724           -0.5615959597
H             4.5276236983            1.0387044617            0.9595190779
O             1.6746737468           -1.6367602738           -2.1213652174
H             1.2222278627           -2.4236564171           -1.8128973726
H             1.0324916186           -1.1383855283           -2.6547457877
O            -0.5145299748           -0.1422794739           -2.9294423872
H            -1.4261845556           -0.4273847861           -2.8351959624
H            -0.5306583495            0.8157380032           -2.8964486188
O            -4.1649617427           -1.0275771344           -0.1355768870
H            -4.7320614850           -0.7856510458            0.5996600386
H            -4.5968312268           -0.7129948827           -0.9329690386
O             1.4267312847           -0.9539620769            2.4815689640
H             0.8526358268           -0.2415822742            2.8039237861
H             0.8927831368           -1.7485474335            2.5087442205
O            -0.8249698085            0.7716723152            2.7492296909
H            -1.0331269887            1.6549215048            2.4365452629
H            -1.6535332131            0.2882758988            2.7159896235
B            -1.1310492540            2.5273719225           -1.7634552906
B            -0.7375243767            2.9979706541           -1.0260517567
B            -2.0200850856            2.2806813938           -1.5010661904
          33
 SCF done      -0.48329789
H            -0.5425054727           -1.1597997900            0.9180874644
C            -0.6112510744           -0.5412957354            0.0100749194
H            -0.5391309006           -1.1969145827           -0.8712437589
C             0.5103659226            0.5037878907           -0.0094871850
H             0.3911098900            1.1518925379            0.8600967265
H             0.3944399668            1.1152671221           -0.9056412656
O            -1.7891827199            0.2100258331           -0.0077307049
H            -2.5646584661           -0.3620748052            0.0026734605
N             1.8637423300           -0.1172781082            0.0059475216
H             1.9871274394           -0.7237038561           -0.8163107149
H             1.9839790218           -0.6890763987            0.8531042569
H             2.5930831826            0.6072401006           -0.0077051388
O             4.1492634975            1.2023810481            0.0932736623
H             4.7679693880            0.8725399724           -0.5615959597
H             4.5276236983            1.0387044617            0.9595190779
O             1.6746737468           -1.6367602738           -2.1213652174
H             1.2222278627           -2.4236564171           -1.8128973726
H             1.0324916186           -1.1383855283           -2.6547457877
O            -0.5145299748           -0.1422794739           -2.9294423872
H            -1.4261845556           -0.4273847861           -2.8351959624
H            -0.5306583495            0.8157380032           -2.8964486188
O            -4.1649617427           -1.0275771344           -0.1355768870
H            -4.7320614850           -0.7856510458            0.5996600386
H            -4.5968312268           -0.7129948827           -0.9329690386
O             1.4267312847           -0.9539620769            2.4815689640
H             0.8526358268           -0.2415822742            2.8039237861
H             0.8927831368           -1.7485474335            2.5087442205
O            -0.8249698085            0.7716723152            2.7492296909
H            -1.0331269887            1.6549215048            2.4365452629
H            -1.6535332131            0.2882758988            2.7159896235
B            -1.1792620633            2.5443875508           -1.6879071890
B            -0.7396222524            2.9788114719           -0.9543666921
B            -2.0769872199            2.3541552992           -1.4086399326
          33
 SCF done      -0.43912654
H            -0.5425054727           -1.1597997900            0.9180874644
C            -0.6112510744           -0.5412957354            0.0100749194
H            -0.5391309006           -1.1969145827           -0.8712437589
C             0.5103659226            0.5037878907           -0.0094871850
H             0.3911098900            1.1518925379            0.8600967265
H             0.3944399668            1.1152671221           -0.9056412656
O            -1.7891827199            0.2100258331           -0.0077307049
H            -2.5646584661           -0.3620748052            0.0026734605
N             1.8637423300           -0.1172781082            0.0059475216
H             1.9871274394           -0.7237038561           -0.8163107149
H             1.9839790218           -0.6890763987            0.8531042569
H             2.5930831826            0.6072401006           -0.0077051388
O             4.1492634975            1.2023810481            0.0932736623
H             4.7679693880            0.8725399724           -0.5615959597
H             4.5276236983            1.0387044617            0.9595190779
O             1.6746737468           -1.6367602738           -2.1213652174
H             1.2222278627           -2.4236564171           -1.8128973726
H             1.0324916186           -1.1383855283           -2.6547457877
O            -0.5145299748           -0.1422794739           -2.9294423872
H            -1.4261845556           -0.4273847861           -2.8351959624
H            -0.5306583495            0.8157380032           -2.8964486188
O            -4.1649617427           -1.0275771344           -0.1355768870
H            -4.7320614850           -0.7856510458            0.5996600386
H            -4.5968312268           -0.7129948827           -0.9329690386
O             1.4267312847           -0.9539620769            2.4815689640
H             0.8526358268           -0.2415822742            2.8039237861
H             0.8927831368           -1.7485474335            2.5087442205
O            -0.8249698085            0.7716723152            2.7492296909
H            -1.0331269887            1.6549215048            2.4365452629
H            -1.6535332131            0.2882758988            2.7159896235
B            -0.8990064124            2.5353432521           -1.6566968415
B            -0.5392338578            3.0715049481           -0.9473426904
B            -1.8157005970            2.3548752058           -1.4394595908
          33
 SCF done      -0.39270889
H            -0.5425054727           -1.1597997900            0.9180874644
C            -0.6112510744           -0.5412957354            0.0100749194
H            -0.5391309006           -1.1969145827           -0.8712437589
C             0.5103659226            0.5037878907           -0.0094871850
H             0.3911098900            1.1518925379            0.8600967265
H             0.3944399668            1.1152671221           -0.9056412656
O            -1.7891827199            0.2100258331           -0.0077307049
H            -2.5646584661           -0.3620748052            0.0026734605
N             1.8637423300           -0.1172781082            0.0059475216
H             1.9871274394           -0.7237038561           -0.8163107149
H             1.9839790218           -0.6890763987            0.8531042569
H             2.5930831826            0.6072401006           -0.0077051388
O             4.1492634975            1.2023810481            0.0932736623
H             4.7679693880            0.8725399724           -0.5615959597
H             4.5276236983            1.0387044617            0.9595190779
O             1.6746737468           -1.6367602738           -2.1213652174
H             1.2222278627           -2.4236564171           -1.8128973726
H             1.0324916186           -1.1383855283           -2.6547457877
O            -0.5145299748           -0.1422794739           -2.9294423872
H            -1.4261845556           -0.4273847861           -2.8351959624
H            -0.5306583495            0.8157380032           -2.8964486188
O            -4.1649617427           -1.0275771344           -0.1355768870
H            -4.7320614850           -0.7856510458            0.5996600386
H            -4.5968312268           -0.7129948827           -0.9329690386
O             1.4267312847           -0.9539620769            2.4815689640
H             0.8526358268           -0.2415822742            2.8039237861
H             0.8927831368           -1.7485474335            2.5087442205
O            -0.8249698085            0.7716723152            2.7492296909
H            -1.0331269887            1.6549215048            2.4365452629
H            -1.6535332131            0.2882758988            2.7159896235
B            -1.2194179910            2.4461417231           -1.7501368823
B            -0.8221582882            3.0171163907           -1.0896358417
B            -1.9832261620            2.0311923539           -1.3445471073
          33
 SCF done      -0.34111084
H            -0.5425054727           -1.1597997900            0.9180874644
C            -0.6112510744           -0.5412957354            0.0100749194
H            -0.5391309006           -1.1969145827           -0.8712437589
C             0.5103659226            0.5037878907           -0.0094871850
H             0.3911098900            1.1518925379            0.8600967265
H             0.3944399668            1.1152671221           -0.9056412656
O            -1.7891827199            0.2100258331           -0.0077307049
H            -2.5646584661           -0.3620748052            0.0026734605
N             1.8637423300           -0.1172781082            0.0059475216
H             1.9871274394           -0.7237038561           -0.8163107149
H             1.9839790218           -0.6890763987            0.8531042569
H             2.5930831826            0.6072401006           -0.0077051388
O             4.1492634975            1.2023810481            0.0932736623
H             4.7679693880            0.8725399724           -0.5615959597
H             4.5276236983            1.0387044617            0.9595190779
O             1.6746737468           -1.6367602738           -2.1213652174
H             1.2222278627           -2.4236564171           -1.8128973726
H             1.0324916186           -1.1383855283           -2.6547457877
O            -0.5145299748           -0.1422794739           -2.9294423872
H            -1.4261845556           -0.4273847861           -2.8351959624
H            -0.5306583495            0.8157380032           -2.8964486188
O            -4.1649617427           -1.0275771344           -0.1355768870
H            -4.7320614850           -0.7856510458            0.5996600386
H            -4.5968312268           -0.7129948827           -0.9329690386
O             1.4267312847           -0.9539620769            2.4815689640
H             0.8526358268           -0.2415822742            2.8039237861
H             0.8927831368           -1.7485474335            2.5087442205
O            -0.8249698085            0.7716723152            2.7492296909
H            -1.0331269887            1.6549215048            2.4365452629
H            -1.6535332131            0.2882758988            2.7159896235
B            -1.4973259152            2.4295544371           -1.8624017389
B            -1.0174445539            2.9324782945           -1.2014399852
B            -2.2984614809            2.1053425011           -1.4462798906
          33
 SCF done      -0.27358799
H            -0.5425054727           -1.1597997900            0.9180874644
C            -0.6112510744           -0.5412957354            0.0100749194
H            -0.5391309006           -1.1969145827           -0.8712437589
C             0.5103659226            0.5037878907           -0.0094871850
H             0.3911098900            1.1518925379            0.8600967265
H             0.3944399668            1.1152671221           -0.9056412656
O            -1.7891827199            0.2100258331           -0.0077307049
H            -2.5646584661           -0.3620748052            0.0026734605
N             1.8637423300           -0.1172781082            0.0059475216
H             1.9871274394           -0.7237038561           -0.8163107149
H             1.9839790218           -0.6890763987            0.8531042569
H             2.5930831826            0.6072401006           -0.0077051388
O             4.1492634975            1.2023810481            0.0932736623
H             4.7679693880            0.8725399724           -0.5615959597
H             4.5276236983            1.0387044617            0.9595190779
O             1.6746737468           -1.6367602738           -2.1213652174
H             1.2222278627           -2.4236564171           -1.8128973726
H             1.0324916186           -1.1383855283           -2.6547457877
O            -0.5145299748           -0.1422794739           -2.9294423872
H            -1.4261845556           -0.4273847861           -2.8351959624
H            -0.5306583495            0.8157380032           -2.8964486188
O            -4.1649617427           -1.0275771344           -0.1355768870
H            -4.7320614850           -0.7856510458            0.5996600386
H            -4.5968312268           -0.7129948827           -0.9329690386
O             1.4267312847           -0.9539620769            2.4815689640
H             0.8526358268           -0.2415822742            2.8039237861
H             0.8927831368           -1.7485474335            2.5087442205
O            -0.8249698085            0.7716723152            2.7492296909
H            -1.0331269887            1.6549215048            2.4365452629
H            -1.6535332131            0.2882758988            2.7159896235
B            -0.7515148427            2.6071897995           -1.5967452807
B            -0.3294154807            3.1323826349           -0.9140348141
B            -1.6655070180            2.4816503310           -1.3341674596
          33
 SCF done      -0.10537681
H            -0.5425054727           -1.1597997900            0.9180874644
C            -0.6112510744           -0.5412957354            0.0100749194
H            -0.5391309006           -1.1969145827           -0.8712437589
C             0.5103659226            0.5037878907           -0.0094871850
H             0.3911098900            1.1518925379            0.8600967265
H             0.3944399668            1.1152671221           -0.9056412656
O            -1.7891827199            0.2100258331           -0.0077307049
H            -2.5646584661           -0.3620748052            0.0026734605
N             1.8637423300           -0.1172781082            0.0059475216
H             1.9871274394           -0.7237038561           -0.8163107149
H             1.9839790218           -0.6890763987            0.8531042569
H             2.5930831826            0.6072401006           -0.0077051388
O             4.1492634975            1.2023810481            0.0932736623
H             4.7679693880            0.8725399724           -0.5615959597
H             4.5276236983            1.0387044617            0.9595190779
O             1.6746737468           -1.6367602738           -2.1213652174
H             1.2222278627           -2.4236564171           -1.8128973726
H             1.0324916186           -1.1383855283           -2.6547457877
O            -0.5145299748           -0.1422794739           -2.9294423872
H            -1.4261845556           -0.4273847861           -2.8351959624
H            -0.5306583495            0.8157380032           -2.8964486188
O            -4.1649617427           -1.0275771344           -0.1355768870
H            -4.7320614850           -0.7856510458            0.5996600386
H            -4.5968312268           -0.7129948827           -0.9329690386
O             1.4267312847           -0.9539620769            2.4815689640
H             0.8526358268           -0.2415822742            2.8039237861
H             0.8927831368           -1.7485474335            2.5087442205
O            -0.8249698085            0.7716723152            2.7492296909
H            -1.0331269887            1.6549215048            2.4365452629
H            -1.6535332131            0.2882758988            2.7159896235
B            -1.1263659362            2.5208636194           -1.6316035889
B            -0.7681376430            2.9689424348           -0.8628469095
B            -2.0729934388            2.4414652110           -1.4986327994
