  102
       -167.76753043
 H         -1.7697410817       -1.2922169589       -0.7263120909
 C         -1.4447844345       -0.9771428394        0.2651844319
 H         -2.0657966451       -1.4732793696        1.0135077725
 C         -1.5642149964        0.5343455309        0.4103766365
 H         -1.2097479022        0.8376219420        1.3938617999
 H         -2.6041695508        0.8282643644        0.3000263184
 O         -0.0950058216       -1.3764319668        0.3890804506
 H          0.2135495229       -1.0963504387        1.2813694748
 N         -0.7301004044        1.1830881749       -0.6109505625
 H          0.2652013366        0.8248868732       -0.5338904167
 H         -0.7069622143        2.2272828665       -0.4872402581
 H         -1.0962282364        0.9590330467       -1.5621195847
 O         -3.3807791570        3.4953515637        0.2951366075
 H         -3.6499389771        2.8783832369       -0.4096006398
 H         -4.1428591215        4.0409989512        0.4947627229
 O          1.2848086976        1.9745740003       -2.7064762203
 H          1.2404459137        1.3170106494       -3.4163684714
 H          2.0923147322        2.4992911210       -2.8113897902
 O          2.0461119040        4.1085844484       -0.0720015729
 H          2.1495137175        3.4656502559        0.6521285975
 H          1.0928191700        4.1921254984       -0.2147452936
 O          1.8394519715        0.4933372859       -0.3905084082
 H          2.0607475568        1.0211145753        0.4048400121
 H          2.1108705456        1.0112342076       -1.1591241560
 O         -2.4314742889        2.5728398759        2.8117284460
 H         -2.7411888942        2.9308875072        1.9684682060
 H         -2.9242796132        1.7384525644        2.9515215441
 O          5.1520130984       -0.1216202017        0.8539220088
 H          4.9326069262        0.3303316618        0.0227328885
 H          4.7020404061       -0.9813764633        0.8268779016
 O          2.1454873713        2.0795156678        1.7353741292
 H          1.3751398636        2.1142506743        2.3305413472
 H          2.8975074973        1.7755647982        2.2767616311
 O         -2.7799030256       -1.9101348429       -2.8435921060
 H         -3.4816366334       -2.1335138665       -2.2071419639
 H         -2.1165413102       -2.6131868023       -2.7609723632
 O          3.5247173864        3.3660883426       -2.0861895804
 H          2.9803193394        3.6805660997       -1.3084519314
 H          4.0291598512        4.1268769501       -2.3760300129
 O         -4.4174927630       -2.6453319408       -0.7745999708
 H         -3.7057604214       -3.2144327474       -0.3897532300
 H         -5.1905875959       -3.2049957068       -0.8588723937
 O         -0.7349545444       -4.2997327164        2.2364640662
 H          0.0664962625       -4.1476484483        1.6745481380
 H         -0.6478221044       -5.1804318503        2.6027990790
 O         -4.6625213908       -0.1494685791        0.3543390081
 H         -4.6432327130       -1.0489605986       -0.0127993121
 H         -4.6927124481        0.4513932227       -0.3986310490
 O          0.4911253005       -0.1427853145       -4.2087623943
 H          0.5927922707       -0.6384708407       -5.0213310252
 H          0.6892989435       -0.7662468300       -3.4634419542
 O          3.6949977566       -2.5376252985        1.0321251633
 H          4.3269676974       -3.2143855036        1.2804307078
 H          3.3511584280       -2.1493839093        1.8945211165
 O          0.3165654226       -0.6310625958        2.9412132143
 H         -0.4570663160       -1.1139521686        3.2855863790
 H          0.2120003946        0.3032234860        3.2036745038
 O          1.2015854002       -3.7645024446        0.5149489636
 H          0.7092292494       -2.9744749293        0.2373952462
 H          2.0999002870       -3.4504268731        0.6998207506
 O         -0.9796712183        3.4146259230       -3.0511746146
 H         -1.5942397973        2.7644971477       -3.3984781397
 H         -0.1104146237        2.9666541625       -3.0145594235
 O          4.2093998864        0.9416711765        3.0534255072
 H          4.9032546202        1.3070617832        3.6027033927
 H          4.6496802545        0.5895122165        2.2344949671
 O         -0.7518908781       -3.7105313965       -2.1946303989
 H         -0.3626497606       -4.5167760046       -2.5337737481
 H         -0.0337728338       -3.0400623316       -2.1617003108
 O         -1.8625338877        0.5478445477       -3.0263875231
 H         -2.2541379381       -0.3599813634       -2.9805689687
 H         -1.0833489556        0.4319911856       -3.6025768599
 O         -1.8587091123       -2.1626967272        3.4973546437
 H         -2.1170930188       -2.4432182810        4.3768257256
 H         -1.5094288348       -2.9550971741        3.0414647126
 O          3.5724668496       -1.7326732717       -1.6977763202
 H          3.8552574544       -0.8063065433       -1.6819471969
 H          3.6227064891       -2.0540265642       -0.7864906886
 O         -4.0229489771        1.7399761777       -1.7608625737
 H         -4.6876796484        1.9974173341       -2.4016432913
 H         -3.2893587507        1.3469638672       -2.2648038741
 O         -0.7559421113        3.8665918636       -0.4398384788
 H         -1.6182762280        4.0401926419       -0.0344351548
 H         -0.8831300494        3.9672478130       -1.4072909964
 O          2.8736961092       -1.4778567712        3.2433831422
 H          1.9311344430       -1.2351706528        3.1876726837
 H          3.3543373902       -0.6394811001        3.3458292682
 O         -2.4081147376       -4.1598081332        0.0013265457
 H         -1.7676574651       -4.0676131472       -0.7231506272
 H         -1.8929952915       -4.2006339386        0.8218705420
 O          0.0226218944        2.0167856500        3.4428505951
 H         -0.8999521119        2.2936260711        3.1815504643
 H          0.1749787548        2.4069468072        4.3043075348
 O          4.5828202331        0.9265440700       -1.6471541537
 H          4.2343714160        1.8351563613       -1.7700148194
 H          5.4019849478        0.8791651422       -2.1428639240
 O          0.9990108066       -1.6888854427       -2.1305003084
 H          1.9835357823       -1.7858970731       -2.0668298511
 H          0.7466940685       -1.3124773557       -1.2705541767
 O         -3.5648775681        0.1349230196        2.8863313412
 H         -3.0963128660       -0.6887829317        3.0618615492
 H         -4.0814771971        0.0040368814        2.0753992672
