  386
       -651.40789243
 H         -0.7205191987       -1.6467483847        0.0679139471
 C         -0.9654650857       -0.6655685828       -0.3320855651
 H         -0.3560992366       -0.4746084022       -1.2190099901
 C         -0.7027708381        0.4181893172        0.7131467061
 H          0.3310908600        0.3319309348        1.0346076128
 H         -1.3553852050        0.2732454308        1.5738883808
 N         -0.9081779655        1.7649643236        0.2027312537
 H         -0.3082786791        1.9073780551       -0.6052986868
 H         -1.8668092196        1.8748010039       -0.1011859318
 O         -2.3334473404       -0.7279538013       -0.7024855025
 H         -2.6549037389        0.1663751051       -0.9787963201
 O          5.2987508319        2.1592317759        0.7362376644
 H          6.1883777498        1.8644614018        0.4759461830
 H          5.4423239972        2.8109409458        1.4506608539
 O          1.2229238717       -2.8516352469        6.3779341293
 H          1.4413875659       -3.5635238206        6.9796871427
 H          0.2488816945       -2.7949772098        6.3445671841
 O          0.2450039199       -3.2928358585        1.7807813001
 H         -0.6717069892       -3.0660611762        2.0201965815
 H          0.7342218987       -3.4573329455        2.6067610574
 O          5.8699743648        0.1949171694       -5.4643919231
 H          6.6809788094       -0.3188158041       -5.4515447523
 H          5.2619220981       -0.2513161037       -6.1052379773
 O         -1.1970549503       -2.9871186791       -2.2562536767
 H         -0.4345903646       -3.3102846667       -1.7413227066
 H         -1.1448163056       -3.4383076173       -3.1160748736
 O         -0.7720135051       -0.8260624125        4.1519220993
 H          0.1677058166       -0.7946198797        3.8582820128
 H         -0.9428592321        0.0484957885        4.5508997234
 O         -4.6992917434        5.3495548615        1.7720405906
 H         -4.2422242489        4.6126630458        1.2988370043
 H         -5.6659811537        5.1879095619        1.6446640137
 O          2.4154857051        2.9338464743        1.3204321047
 H          2.6006050014        2.2060534963        0.6969152140
 H          2.5704313805        3.7596312504        0.8348931152
 O          2.5958535475        5.7847944635       -2.4415436713
 H          3.5175940760        5.6995876086       -2.7169443000
 H          2.0822138834        5.2497705624       -3.0785536182
 O          0.5307446508        1.9414893660        3.0065086296
 H         -0.4103672405        2.1402056559        2.9018965448
 H          1.0138526237        2.4031658537        2.3024371325
 O          1.6723382946       -0.4011059060        3.3241235810
 H          1.9270509539       -0.7421801413        2.4501715219
 H          1.3625476765        0.5260116823        3.2030698135
 O          1.0297047377        2.4401001389       -1.8344209166
 H          1.7396149831        2.0023654121       -1.3351845244
 H          0.9337524505        3.3512699550       -1.5001679447
 O          7.7459588956        1.0959632691        0.4445614470
 H          8.2130750449        1.2791017668        1.2899971356
 H          8.4288567160        0.8027695679       -0.1841003088
 O         -4.1494608417       -1.6996605675        5.4200192867
 H         -5.0179273343       -1.3090842291        5.2040136064
 H         -4.1426613324       -2.5439927732        4.9336399045
 O          0.9596302025       -6.1355128732        4.1264717909
 H          0.9034663589       -6.5300956959        3.2457352256
 H          1.4940929109       -5.3297196294        4.0340210107
 O         -4.5758033544        6.3098938165       -1.0147042650
 H         -3.6673472551        6.0382174901       -1.2319574084
 H         -4.6823105825        6.1987234834       -0.0611603130
 O          4.3662713868       -6.4633727162        0.0746986347
 H          4.0237525938       -6.3249148056       -0.8172274972
 H          3.7290491421       -5.9706857960        0.6306379230
 O         -7.1757390658       -2.6334884513       -1.2595638945
 H         -6.8710313208       -2.9881767092       -2.1165084959
 H         -6.4139040392       -2.6855525425       -0.6454540497
 O          4.2339937199       -0.7257172047       -3.5419979261
 H          4.9312013161       -0.4112553425       -4.1566357613
 H          4.6085211951       -0.6843599070       -2.6353052941
 O          4.3572557792       -3.1287967601       -4.7156221278
 H          4.1980358843       -2.3172981020       -4.1831616172
 H          3.5691725076       -3.6663792543       -4.5904090309
 O         -3.3465022265        2.5648758201        5.5719087150
 H         -3.6666210170        1.7947216113        5.0757886913
 H         -3.7752109911        3.3297222678        5.1605483476
 O          2.0381994095       -1.6062075009        0.8656829389
 H          1.3571018263       -2.2499394660        1.1623335587
 H          2.9025735030       -2.0484208576        0.9851609834
 O          4.4688240797        0.0399789867        2.2023535872
 H          3.9194609696        0.5510865473        2.8240485470
 H          4.7100993777        0.6911294764        1.5125320674
 O         -3.2079385103        3.6637151159        0.4226598244
 H         -2.8557931490        4.1495429307       -0.3485037148
 H         -3.6305929272        2.8624620284        0.0561154538
 O         -4.1279012787       -6.5148672940        0.9555836864
 H         -4.4719805812       -6.5544932984        0.0571773652
 H         -4.8233055500       -6.1205532453        1.4959972381
 O         -3.0115184586       -3.9152046429       -0.4669944063
 H         -2.4016385055       -3.5265554370       -1.1250310371
 H         -2.4773540142       -4.2076684386        0.2898947682
 O         10.0589318639       -0.9489905933        1.7832403990
 H          9.5598146023       -1.7564025517        1.9511549617
 H         10.0266822578       -0.7780208188        0.8328846042
 O         -1.3183014736       -6.1088517302       -1.5096434908
 H         -1.9496417252       -6.1044844083       -0.7858338970
 H         -0.5992544937       -5.4958875112       -1.2509649893
 O         -2.6850142441        2.8831021353       -6.1724880847
 H         -3.3567131825        2.2471430971       -5.9006202063
 H         -1.8868430202        2.3358760580       -6.3299316728
 O         -3.3532177322        0.3774598815        3.8842751541
 H         -3.5012839681       -0.3398727342        4.5306278287
 H         -3.7058085320        0.0384217343        3.0505534509
 O         -4.1090486871        0.7010500119       -4.7908132023
 H         -3.4800523921        0.0961564510       -4.3669189266
 H         -4.9987724278        0.4718050515       -4.4562083267
 O         -5.6058265890        4.2498237218       -2.3524145800
 H         -4.7947393515        3.8601426324       -2.7270528961
 H         -5.3399905448        5.0978983343       -1.9296997514
 O         -4.7024135493        4.6647054516        4.3166581675
 H         -5.0424328778        5.4329127721        4.7728326271
 H         -4.6328360915        4.9203776032        3.3567204865
 O          5.0615902337       -0.0623588414       -1.1605876853
 H          5.6251998597        0.6765780269       -1.4795943459
 H          5.6115971276       -0.5915416622       -0.5645263445
 O          9.6643811184       -0.2197811230       -0.9859298016
 H          9.2177663910       -0.1914521096       -1.8761226330
 H         10.2391809752        0.5594122770       -0.9798716770
 O          0.5798089657       -4.3315228168       -0.7720530620
 H          1.4775971997       -4.6427636442       -1.0120385348
 H          0.5877091252       -4.1160237104        0.1739645249
 O          4.4956325327       -2.9691932365       -1.6095980049
 H          5.4075730577       -3.1860748307       -1.8314825179
 H          4.4687085900       -2.8387901390       -0.6326077454
 O          8.3302699361        0.0112133771       -3.2111127730
 H          7.6647749308        0.6688756385       -2.9233708417
 H          7.8441049149       -0.7598229028       -3.5375381512
 O          1.7246244128       -3.7179725376       -3.9539345163
 H          0.8312353892       -3.9512424153       -4.2478044800
 H          1.6274350714       -3.1307211013       -3.1793600842
 O         -1.6220022094        4.7160407999        4.3747187913
 H         -1.8258114146        3.9113378051        3.8364978439
 H         -1.9628008961        4.5355252375        5.2511141202
 O          1.8649223935        2.3561664591       -5.9827910539
 H          1.6197150238        3.1645809131       -5.4996740482
 H          2.4303742556        1.8761721435       -5.3676555594
 O         -0.9898644131       -1.4334853468       -5.9904532657
 H         -0.0059006409       -1.5064539379       -5.9449130113
 H         -1.0968700340       -0.5108844027       -6.2846713341
 O         -4.3909511569       -1.9812902937       -1.9834684859
 H         -3.5350022961       -1.7148635797       -1.6246214010
 H         -4.2412365039       -2.1836320390       -2.9195784732
 O         -1.4192413304       -2.6975779958        5.8534020788
 H         -2.3113371966       -2.4799605704        6.1427280106
 H         -1.1833148614       -1.9797697937        5.2115450065
 O         -0.8432217127       -3.9438378605       -4.7998843095
 H         -1.5066961864       -4.6364231057       -4.8884595846
 H         -1.0241279306       -3.2342694828       -5.4335942443
 O         -7.6198657437        2.9888935640       -3.5980727484
 H         -7.8820369029        3.4555410848       -4.3905941804
 H         -6.9227555207        3.5292458403       -3.1687423199
 O         -3.8150464059       -2.8938883202       -4.4894349208
 H         -3.2009255914       -2.4125573616       -5.0482190406
 H         -3.3879449341       -3.7232420433       -4.1955154245
 O         -8.4868893810        2.8619355486        3.1161818649
 H         -9.0733703424        2.9100761220        3.8697909840
 H         -7.5893971294        2.6011436631        3.4639189422
 O         -0.2364584513        4.1211655622        1.2845163400
 H         -0.5563197088        3.2273781221        0.9893800469
 H         -1.0182273583        4.6728070419        1.4571161503
 O          3.8423744634        3.1024689562       -1.3714197867
 H          4.3340303078        3.8249188053       -1.7891624095
 H          4.3931299840        2.7693138066       -0.6390121779
 O          1.0743277144        4.1414614713       -4.0555799281
 H          0.1195782341        4.3115487628       -4.1500970796
 H          1.1490310527        3.4109515087       -3.4202225611
 O          3.6582078842        5.3047884841        2.9369105836
 H          3.4096798987        5.4358108957        2.0135748025
 H          2.8320233136        5.1268899744        3.4031693857
 O         -2.0110245143       -0.7444390916       -3.5938902015
 H         -1.7279477389       -1.4155063599       -2.9513002937
 H         -1.5541299568       -0.9713665776       -4.4300956356
 O          5.4238891447        2.7436523735       -4.5236188109
 H          5.7425286188        2.0461994878       -5.1148036837
 H          4.4999239874        2.4816733899       -4.3121822196
 O         -6.5111540857        0.4552818317       -3.6199253593
 H         -6.4055416815        0.2976612093       -2.6612483985
 H         -6.9493199889        1.3182393737       -3.6986167744
 O          6.9178764362       -2.2115888996       -4.0717034613
 H          7.0824278854       -2.7752500986       -3.3011378161
 H          6.1403858823       -2.5960357412       -4.4984418964
 O          8.1595747277       -3.1442539668        1.8554852111
 H          7.8309826136       -2.9390530129        2.7723814612
 H          7.6123020471       -3.8968787334        1.5756431689
 O          3.1693149804        1.6999569040       -3.5467774751
 H          3.3508230768        2.1575301745       -2.6947590658
 H          3.5539961194        0.7976216452       -3.4861021047
 O         -2.8722540587       -5.3083114494       -3.5998638545
 H         -3.7261095481       -5.5846534240       -3.2460181480
 H         -2.2314530058       -5.5938152698       -2.9131227525
 O          6.6886743445        0.2063884955        3.7201545729
 H          5.9513669868        0.0813104560        3.0801804318
 H          6.3631190391        0.8770530496        4.3454098333
 O         -5.8995520963       -0.0392145114       -1.0255916264
 H         -5.4333904984       -0.8439387461       -1.3458038253
 H         -6.2805981044       -0.2657239294       -0.1559183852
 O         -6.3169666077       -3.7294505660       -3.5885942935
 H         -5.9054460240       -4.4434901276       -3.0660912145
 H         -5.5909896160       -3.3387756462       -4.0924497405
 O         -7.0421265085       -5.6312722408       -0.0303697910
 H         -7.9202475010       -5.2504731432       -0.1340688995
 H         -6.7729568992       -5.4290598049        0.8747323119
 O          4.4778019839       -2.6808470570        1.0226709617
 H          5.1598583932       -1.9813757175        1.0653351391
 H          4.9628622959       -3.5178645903        1.1510692427
 O          3.3165136573        1.9662702590        3.6857524277
 H          3.0947231267        2.4743173092        2.8814814992
 H          2.6390520466        2.2127858546        4.3594549650
 O         -1.8313223275       -5.2717813252        1.5889285693
 H         -1.7413988474       -5.0719385906        2.5426298106
 H         -2.6167094070       -5.8426235369        1.4937905638
 O          2.8002230129        5.4412708658        0.2245875266
 H          2.7575114645        5.4973715883       -0.7557893043
 H          2.1131728793        6.0453233915        0.5664416145
 O         -4.8852131792        1.8072233198        1.6880676229
 H         -4.7466607965        0.8614113127        1.5229904413
 H         -5.4741562706        2.1217967394        0.9776713494
 O          4.1365528901       -1.3038304421       -6.7753587310
 H          4.3108670222       -2.1159048011       -6.2692831867
 H          3.2109122965       -1.0931003346       -6.5716503061
 O          7.0273831013       -2.4599217419        4.1127057438
 H          7.0810563965       -1.4872768602        4.1189687192
 H          6.0728008040       -2.6427124049        4.0614911147
 O         -5.0039171584       -5.3522781614       -1.7906663740
 H         -5.7833685795       -5.4440464001       -1.2096965951
 H         -4.3768859520       -4.7561417447       -1.3425728742
 O         -2.1649567809        2.6265557036        2.8157751206
 H         -2.6375755987        1.8650267335        3.1847000860
 H         -2.6378042199        2.8939272988        2.0105064421
 O         -9.0184459137        0.9025801086        1.2912069344
 H         -8.9110443504        1.6339324672        1.9268709387
 H         -8.9837500045        1.3034408718        0.4084347935
 O          4.2962392077       -2.2585399611        3.8302707025
 H          4.3292870250       -1.6478972469        3.0770576890
 H          4.0292440009       -1.7023361446        4.5982040777
 O          5.8852763977        3.8521132745        2.7729144031
 H          5.9806733776        3.3395223949        3.5904565807
 H          5.0856939006        4.4018977088        2.9150422367
 O         -5.9171969144       -4.7585089112        2.3879074702
 H         -6.6785827277       -4.1922789978        2.6197949549
 H         -5.2048948908       -4.5120562764        3.0190091842
 O         -9.0025502830       -0.8389391606       -2.0056693915
 H         -8.2800536297       -1.3772432574       -1.6235371333
 H         -8.9693872437       -1.0649291908       -2.9577525939
 O         -1.9694090346        6.1104428882        2.0220208395
 H         -1.8972700248        5.8428737574        2.9516402340
 H         -2.9121274983        6.0907880970        1.8218454580
 O         -9.1237413435       -3.6362332666        0.2297892607
 H         -9.8105723233       -2.9380946081        0.2441554531
 H         -8.4588293046       -3.3039018104       -0.4167947964
 O          2.5713721768       -4.8908467024        1.3014705436
 H          2.6816560150       -4.5116488883        2.1756433424
 H          1.8175771527       -5.5077408597        1.3469268280
 O         -2.1960379302       -2.3897201953        2.5398214540
 H         -2.8380885947       -1.8224889264        2.0624744619
 H         -1.7442572141       -1.7850442871        3.1626487564
 O         -1.6405866135        4.6233509057       -4.4435979377
 H         -1.7026708378        5.4603816390       -4.9028181911
 H         -2.0564497201        3.9560527451       -5.0475954589
 O         -6.0717265332        2.3041541462        3.9442729569
 H         -5.6086579304        2.0835035890        3.0888204228
 H         -5.6792079803        3.1487341012        4.2159747364
 O          6.5503853296        1.8032583294       -2.2740299034
 H          6.9214738016        2.5281784690       -1.7235985552
 H          6.1670550029        2.2147088435       -3.0770737980
 O         -3.9620477414       -0.7644041945        1.4064147802
 H         -4.6569293685       -1.4193885637        1.1759439562
 H         -3.3988814410       -0.6887405427        0.6052185086
 O          2.0026348131       -3.5873845157        3.8502431052
 H          2.8813013873       -3.1429387883        3.7679991474
 H          1.6723139225       -3.2882157511        4.7164121782
 O         -3.7405515585        1.4717091850       -1.0017520885
 H         -4.6124211400        1.0157552231       -0.9718783547
 H         -3.7122963674        1.9616226893       -1.8583409664
 O          2.9169951400       -5.1284434354       -1.9020407825
 H          3.5174360505       -4.3622515683       -1.7731989215
 H          2.5414040747       -5.0047947452       -2.7834576106
 O          1.9926248037       -1.9693673207       -1.8594532504
 H          2.9473544105       -2.0966817365       -1.9725540829
 H          1.8599327707       -1.8820377338       -0.8993391250
 O         -0.5826868505        1.2522846403       -6.0081487333
 H         -0.6956257693        1.4105212458       -5.0497384349
 H          0.3215077274        1.5736850021       -6.2010561068
 O         -0.8951430674        1.4617406061        5.6291241093
 H         -1.7488498199        1.9389470483        5.5645976789
 H         -0.8143551117        1.1773232080        6.5394022630
 O          0.4687632961       -6.5926828954        1.3847788430
 H          0.4255872266       -7.1741406491        0.6250233622
 H         -0.3757234255       -6.0818044673        1.4033931918
 O         -6.3993581477        2.7508025222       -0.3006638689
 H         -7.1654986552        2.2472970567       -0.6413970810
 H         -6.0674290227        3.2831572979       -1.0549476562
 O          2.6620908766        0.7992209365       -0.3259755427
 H          2.3580710699        0.0003678914        0.1234785039
 H          3.5664629995        0.5868341295       -0.6304911903
 O         -1.1255833278        1.7733080146       -3.3641103323
 H         -1.3813161084        0.8300521071       -3.3091694530
 H         -0.3163653527        1.8821512630       -2.8430212556
 O          7.4890428895        3.8366317367       -0.8497721938
 H          6.7479027598        4.4275663322       -0.6200999886
 H          7.9243223145        3.6983795475        0.0141376423
 O          0.8113226553        6.8130183864        1.4792124202
 H         -0.1494911999        6.8159530562        1.3956209285
 H          0.9828483869        6.4219519751        2.3492579127
 O          1.5428632430        2.8972041203        5.4090300757
 H          0.7469006947        2.3461990665        5.3441136039
 H          1.3671662068        3.6658452637        4.8403102097
 O          5.5737692449        5.4222927448        0.1736367829
 H          4.6045563229        5.4381493304        0.1372292287
 H          5.8133295272        5.4145445782        1.1028099038
 O          7.1735513557       -3.8987477563       -1.8727002407
 H          7.4467811363       -4.7243943844       -2.2743736889
 H          7.9970993049       -3.5025249365       -1.4632533888
 O          8.4665935867        3.7556011055        1.6957350573
 H          7.6159993694        3.9552675628        2.1149893967
 H          8.8164993822        3.0036493022        2.1966295296
 O          6.2383676590       -4.6903320829        0.6580198743
 H          5.6580628136       -5.4735339120        0.5181738965
 H          6.5206288593       -4.4210949481       -0.2304984044
 O         -6.8264648558       -0.6065751389        1.4904523828
 H         -7.6338713740       -0.0488910016        1.4499058456
 H         -7.1367160938       -1.5109312259        1.6680202734
 O          6.6573448632       -1.2785296638        0.6465379853
 H          7.0808994661       -0.3959683836        0.7117889029
 H          7.2667655897       -1.9248055048        1.0523301223
 O          0.9517029178        4.9127841441        3.5751220397
 H          0.0906583614        5.0141891410        4.0171135084
 H          0.7236538301        4.4536568801        2.7387703340
 O          1.0143727408       -0.0128812018       -3.4196683386
 H          1.3773996293       -0.6638906778       -2.7918859610
 H          1.6160030833        0.7479261871       -3.4032577140
 O          1.6311531935       -1.4329629727       -5.5634292167
 H          1.8218257164       -2.2793943353       -5.1293915612
 H          1.4491683694       -0.7996304223       -4.8264027219
 O         -3.8842384145       -3.9367382677        3.8661093026
 H         -3.3134212037       -4.6217333130        4.2347459531
 H         -3.2751789293       -3.3993163122        3.2994157320
 O          3.0739690898       -0.7470593864        5.6344825394
 H          2.4773558066       -1.3511488056        6.0899990794
 H          2.5657570978       -0.4020725394        4.8779680051
 O          5.5388901088        2.2781381132        5.0119587236
 H          5.3406278646        2.3627366759        5.9433266374
 H          4.6662412639        2.1473345224        4.5536189995
 O          5.2367040513        4.9480405891       -2.9067943943
 H          6.0844610564        5.2049104327       -2.5395505109
 H          5.4053995353        4.3411541927       -3.6450339867
 O         -1.4350716874       -4.9635762036        4.2579519022
 H         -0.6037518606       -5.4797179224        4.3307610460
 H         -1.3315311610       -4.1859193981        4.8341369003
 O          0.2742127173        4.9175947884       -1.1245804250
 H          0.8301539506        5.6739575780       -1.3216661532
 H          0.2311999662        4.7678597632       -0.1460698183
 O         -7.2124854529        4.6640085675        1.3859122214
 H         -7.7630200877        4.2059943627        2.0343404538
 H         -6.9987902785        3.9841901815        0.7117361102
 O          9.2980269389       -2.9703008261       -0.7213980068
 H          9.1163491552       -3.0708867215        0.2238648157
 H          9.5065054889       -2.0351725456       -0.8773254880
 O         -6.2736924099       -0.4583436333        4.2508854107
 H         -6.3701842972       -0.5654558049        3.2890151401
 H         -6.2195752520        0.4969222478        4.3881984059
 O         -3.5568494542        2.7659402016       -3.2521965540
 H         -2.5826929491        2.6865903719       -3.3100508596
 H         -3.8771026357        2.0983444008       -3.8999559192
 O         -8.1547992667       -1.6074603010       -4.4214656999
 H         -7.4845307709       -0.9080601289       -4.3247612683
 H         -7.6969715576       -2.4421122895       -4.2681445452
 O         -8.6119444479        1.6783260461       -1.3315421600
 H         -8.7404117173        0.7430083137       -1.6220577560
 H         -8.5778250353        2.2045800183       -2.1401270913
 O         -2.2907163220        4.9930092072       -1.7460915251
 H         -1.3363764212        5.0417166550       -1.5294808862
 H         -2.3056388323        4.7687928929       -2.6899527119
 O          8.9575571853        1.2839384297        2.7964636252
 H          9.5464303901        0.5285833322        2.6087395682
 H          8.1814999459        0.9010098365        3.2574982284
 O         -7.9040002355       -2.9665896087        2.4122884420
 H         -8.4136219401       -3.2751194072        1.6052038287
 H         -8.5480595734       -2.7143978952        3.0729543038
 O        -10.4806380123       -1.3137002462        0.2559696847
 H        -10.2042972257       -1.1036002142       -0.6522027992
 H        -10.1144109598       -0.5994692895        0.7947863472
 O         10.1616836841        2.4772060661       -0.6732114724
 H          9.4659427842        2.9209428778       -1.1693387177
 H         10.1813756749        2.9065675842        0.1860598894
 O         -5.2319068323       -2.8865441202        0.5545824120
 H         -5.4740743619       -3.5824931035        1.1920851150
 H         -4.4227966697       -3.1903767101        0.0921841555
