  147
       -244.15627592
 H         -0.4881086782       -2.7885393874        0.2837533247
 C         -0.4270988441       -1.8509991753       -0.2692856693
 H         -0.0468908056       -2.0494009538       -1.2707672286
 C          0.4918801024       -0.8936230049        0.4773084762
 H          1.5077514498       -1.2756841014        0.4464065160
 H          0.1746005036       -0.8188734552        1.5119935604
 O         -1.7234900963       -1.2962406878       -0.4360061797
 H         -2.1068890468       -1.1615707639        0.4590963609
 N          0.4491020087        0.4590588327       -0.0978611957
 H          0.7624300291        0.4729053530       -1.0893311802
 H          1.1054800632        1.0783143681        0.4287921387
 H         -0.5198670479        0.8724573675       -0.0116379344
 O         -0.3223781212        2.5277463307       -2.9855385659
 H         -0.6712241177        1.6213401510       -2.9687549049
 H         -1.0133000553        3.0755685710       -2.5611112159
 O         -2.6459516315        1.6893680954        2.7644854904
 H         -3.5526850611        2.0446803292        2.7708981227
 H         -2.0545129869        2.3302118613        3.1991305606
 O          2.4983094507        2.0121637885        0.4720219848
 H          2.8459472093        2.6756029442        1.1098886794
 H          2.2929920164        2.5263453516       -0.3359773699
 O          2.1517823131       -3.6159339051       -0.0172558275
 H          3.0205530012       -4.0359708698        0.0606417172
 H          1.4968493983       -4.3056891056       -0.3100896337
 O          6.5511669300        0.5928920854       -0.2421050489
 H          6.3974955960        1.5487083199       -0.1949103990
 H          6.5979697723        0.3645409974       -1.1908371310
 O         -4.5746592425        3.2798927867       -2.3199896679
 H         -4.3750035868        2.4798187039       -2.8273559123
 H         -3.7169540412        3.6537081302       -2.0630225491
 O         -3.8417372805        0.6997432957       -3.2005791956
 H         -2.8995560361        0.4987446207       -3.3321633616
 H         -4.3365348731       -0.0758639508       -3.5139231106
 O         -5.6971658825        2.3555898978       -0.1436959874
 H         -6.5351762624        1.9148822591       -0.3570532081
 H         -5.3816139016        2.8210925273       -0.9614829771
 O          1.8341666348       -2.9042025336        2.6251658018
 H          1.7832940305       -3.2423469778        1.7131754862
 H          2.7133792251       -2.5139657804        2.7005878405
 O          5.4179536299       -2.6357214559       -2.1211675196
 H          5.4843634666       -3.0416298517       -1.2446597323
 H          4.4628760660       -2.5132554962       -2.2604816808
 O          0.4810108361       -2.0486432398       -3.5514107035
 H         -0.0097845998       -2.8898315434       -3.5165077463
 H          1.3854430054       -2.2575208340       -3.2994827960
 O         -2.3814785876       -0.9468268747        2.1831712927
 H         -2.4886232519       -0.0126991844        2.4422096206
 H         -1.6770148428       -1.3072296023        2.7500078298
 O         -3.0953634146       -2.9987410002       -2.1043225027
 H         -3.7520348276       -2.5512533554       -2.6701652152
 H         -2.7077354405       -2.3213019808       -1.5201149331
 O         -4.0007524618       -4.0897106047        0.2678569745
 H         -3.8726275490       -3.8360041500       -0.6596467362
 H         -4.4786710297       -3.3553667978        0.6841894400
 O         -1.5433800634       -4.5311492795        1.1648337907
 H         -1.6114510106       -5.2302892376        1.8151044266
 H         -2.4623525191       -4.3803460384        0.8305787936
 O          0.2563975673       -5.2335895352       -0.7591545181
 H         -0.4175554082       -5.0639267726       -0.0706646188
 H         -0.1440241648       -4.9521969883       -1.5976586681
 O         -5.0906103099       -1.7056408038       -3.4203985725
 H         -5.7096515958       -2.1359670199       -4.0095813455
 H         -5.5325524082       -1.6602162848       -2.5226761424
 O         -1.9159343409        1.6310385634        0.2102090736
 H         -2.0870797990        1.7479279805        1.1685276736
 H         -2.6716165336        1.0707534567       -0.1062428860
 O         -4.0375837681        0.3246173241       -0.5598275787
 H         -3.9764080175        0.4421896624       -1.5355397251
 H         -4.6743940484        1.0195128300       -0.2753003777
 O          0.1643706010        5.2327622917       -0.4157555302
 H          0.3499343386        6.1196602568       -0.7268733784
 H          0.8084486032        4.6377664175       -0.8511090288
 O         -5.9744421846       -1.5444299482       -0.9832279493
 H         -6.7257299299       -0.9478838721       -0.8300891445
 H         -5.2122997347       -1.0837208124       -0.5874332942
 O         -0.2057120619       -1.5978036186        3.7290920591
 H          0.5274557479       -2.1148779775        3.3145748138
 H         -0.3030431511       -1.9486775260        4.6146136628
 O          4.3567106733       -1.6769693255        2.1270138205
 H          4.1176551603       -1.1193501049        1.3441973940
 H          5.2425407329       -1.3691505111        2.3791196772
 O          1.7618766464        3.4329186917       -1.6827681724
 H          2.5194785060        3.4886219517       -2.2699247093
 H          1.0248531458        3.0260473189       -2.2116847586
 O          0.6173644324        0.9553314998        2.8967105736
 H          0.2395891964        0.1983345171        3.3669198009
 H          1.5834172397        0.9005171347        3.0794150455
 O          6.8155160179       -0.4502529166        2.2261183211
 H          6.8649555696       -0.1748858773        1.2897266419
 H          7.7128591600       -0.5904326233        2.5284986263
 O          0.9620664635        4.9903519481        2.2448796122
 H          0.5774682036        5.1108426038        1.3619956150
 H          0.3587850825        4.3995888666        2.7261129743
 O          3.4060985258        4.0667561956        1.8466606314
 H          2.5438869454        4.5025781746        2.0534537280
 H          3.8457884416        3.8881057085        2.6803828670
 O         -4.8328208223       -2.0013892051        1.9506134029
 H         -3.9296321490       -1.6290992615        2.0427571285
 H         -4.9933364813       -2.5511458894        2.7187238671
 O         -1.2543899372       -0.0505463713       -2.8429684652
 H         -1.5005938287       -0.3822433391       -1.9625078705
 H         -0.6968103971       -0.7403241144       -3.2420362179
 O          1.7300385922        0.4947796605       -2.5361755952
 H          1.2726121869        0.5858723896       -3.3740732303
 H          2.0675390339       -0.4218144110       -2.4737114434
 O         -7.6943316288        0.4717727064       -0.2125973620
 H         -7.3841015426        0.3063469688        0.7179840693
 H         -8.6508840594        0.4595144604       -0.1860516411
 O          3.1414757029        0.5337443587        3.4757974843
 H          3.4477226149       -0.3449249061        3.2179091321
 H          3.8530644241        1.1468890707        3.2033478740
 O          2.8468276762       -1.8152000169       -1.8207258631
 H          2.4993318759       -2.5193266262       -1.2241607484
 H          3.3154118458       -1.2087247206       -1.2054440112
 O          6.1044634621       -0.1583506015       -2.7682155652
 H          6.7097614667       -0.1922566320       -3.5092364708
 H          5.8853675595       -1.0988172123       -2.5463834789
 O          3.9436692075       -0.1631088187        0.0087015224
 H          3.4466071819        0.6692492117        0.1900086900
 H          4.8759348982        0.1029867724       -0.1266997819
 O          4.9029441282       -3.7532467354        0.4496768165
 H          5.4212044041       -4.4317289296        0.8825861783
 H          4.7263469076       -3.0555446906        1.1178096079
 O          5.2585424656        1.8958449556        2.5588353700
 H          5.9065955330        1.1796469627        2.5971354506
 H          5.2856877938        2.2512457719        1.6559684101
 O         -2.0300541562        3.8160181606       -1.3508890385
 H         -2.0217223972        3.0670845762       -0.7192106727
 H         -1.4282802838        4.4767042771       -0.9750199821
 O         -0.5545229098        3.1521400006        3.6749644111
 H         -0.0469933531        2.3495306179        3.3712562750
 H         -0.3348491638        3.2851238347        4.5977477361
 O         -5.2152995253        2.4942340351        2.4630483788
 H         -5.6940145659        3.2224829356        2.8599963341
 H         -5.3637185138        2.5551825444        1.4926918478
 O         -6.6411651681        0.0627658599        2.1626455068
 H         -6.1023064010        0.8285975901        2.4108000683
 H         -6.0278281943       -0.6844050361        2.0364645732
 O         -0.9938745792       -4.2818144753       -3.0681933415
 H         -1.2751579716       -4.9657670259       -3.6766749210
 H         -1.8151271365       -3.8575049811       -2.7175421714
 O          5.2396924981        2.9711474242       -0.0490842182
 H          4.7607245510        2.6881179460       -0.8538833989
 H          4.7420463804        3.7052668056        0.3289581815
 O          4.1333812043        1.8621832151       -2.2893105064
 H          4.8048438044        1.2265147999       -2.5736062619
 H          3.2827492160        1.3920891774       -2.3351411268
