  117
       -193.22406206
 H         -2.4769269799       -0.5623997525        1.2085004230
 C         -2.6693416486       -0.5650769028        0.1343996393
 H         -3.5113503080       -1.2261894702       -0.0716720516
 C         -1.4488949397       -1.0781245621       -0.6201195607
 H         -1.6800030117       -1.1859431191       -1.6768369326
 H         -1.1914205624       -2.0547682863       -0.2179164422
 O         -3.0416938299        0.7369875909       -0.2897702172
 H         -2.3790785861        1.3814684069        0.0408963590
 N         -0.3147532667       -0.1533671429       -0.4659039413
 H          0.5958098625       -0.6239531959       -0.7053976127
 H         -0.2489887579        0.1460154115        0.5298457595
 H         -0.4195396328        0.6840302529       -1.0930573291
 O          4.5828536556        0.1548397051       -1.5240874117
 H          4.9046691660        0.9358811737       -1.0186272237
 H          4.7923521867       -0.6409112343       -1.0094011725
 O          3.5574096540        0.6387079265       -4.0088530838
 H          4.0256376899        0.5005928885       -3.1618972644
 H          4.2272598607        0.6616345152       -4.6922466394
 O          3.1473701604        4.1584947436       -1.3692753753
 H          2.6862926852        3.7151294888       -2.1071906299
 H          3.4790514965        4.9887777630       -1.7116782329
 O          1.9247643266       -1.6338454427       -0.7211741398
 H          2.3700876283       -1.3102836824        0.0852960293
 H          1.6397957975       -2.5511039812       -0.5560398636
 O         -3.8105948389        0.3326877772       -2.9177329338
 H         -3.6644947275        1.2058300707       -3.2994716960
 H         -3.5657258807        0.4410786088       -1.9842825743
 O          1.7895640252       -1.3965216997       -3.4357938309
 H          2.4424605317       -0.7781415217       -3.8018550215
 H          1.9471237558       -1.3893934801       -2.4751753432
 O          1.7569371222        2.7473101063       -3.2688542915
 H          0.8157852912        2.5310542626       -3.1210791903
 H          2.1182034504        2.1166327721       -3.9043859222
 O          2.0619969514        0.9620387864       -1.2065641356
 H          1.9957549871        1.5282166991       -1.9923338269
 H          2.9644256194        0.5850423393       -1.2319711661
 O         -0.1924195120        0.0329819474        2.2602799771
 H         -1.0099039590        0.3893636491        2.6766168914
 H          0.5416855305        0.5742424438        2.5820957415
 O          5.1665710285       -2.1910224628       -0.1554076626
 H          5.7556532985       -2.7027639459       -0.7113655559
 H          4.4823329029       -2.8028958382        0.1610435843
 O          3.3856748884       -4.2289542067        0.7263634864
 H          3.7377049243       -5.1203400642        0.7074253971
 H          2.5133232152       -4.2690009501        0.2812607018
 O         -0.2339290497       -3.2649725960       -2.5923621766
 H         -1.0571277806       -2.9493745037       -2.9845779417
 H          0.4803592906       -2.8204311980       -3.0664520092
 O         -2.4749371811       -1.8182994234       -3.7671111328
 H         -2.9735172709       -2.3037074947       -4.4251628753
 H         -3.0536258527       -1.0710335689       -3.4826093585
 O         -2.4328749471        0.9523864561        3.3764915899
 H         -3.0580606502        1.5578025352        2.9392536021
 H         -2.9481987412        0.1582737595        3.6162805130
 O         -0.4078330461       -0.0623498379       -4.2376842172
 H         -1.1317090442       -0.7083396130       -4.2321342142
 H          0.4024367750       -0.5644807640       -4.0124892531
 O          2.0291348782        1.6393076879        2.7059862502
 H          1.8255500497        2.1779005938        1.9017537978
 H          2.9553737292        1.8627032818        2.9028643351
 O         -0.6301204187        1.7478084188       -2.3806771248
 H         -0.6135113665        1.0853808513       -3.1206684451
 H         -1.4821123603        2.2172130860       -2.4533589517
 O         -1.1083492660        2.4308962070        0.7496170139
 H         -1.0642297229        2.6577726895        1.7014334730
 H         -0.2255514612        2.6818003610        0.4208908048
 O         -0.5265045934        2.9651065703        3.3346741269
 H         -1.1156900519        2.3849201802        3.8308787763
 H          0.3788680377        2.6692947572        3.4845868008
 O         -0.0734564476       -2.6629378432        1.9094081522
 H          0.6459084109       -2.9654795903        2.4802418512
 H         -0.1195496070       -1.6968175914        2.0477596868
 O          1.5166062137        2.8710620507        0.4368817664
 H          1.7484345424        2.0995924968       -0.1496913993
 H          2.0057980704        3.6148597083        0.0648461742
 O          0.8867607792       -4.0821788752       -0.2628771329
 H          0.3189365281       -3.7633000068        0.4582961501
 H          0.3817103758       -4.0116182537       -1.0947292015
 O         -3.2640878729        3.8061461773       -0.0919544456
 H         -3.8271507499        3.5703112174        0.6559833797
 H         -2.3740947310        3.5156503270        0.1840212399
 O         -3.0332250088        3.0159181857       -2.6256171323
 H         -3.2279927110        3.2942147909       -1.7006476406
 H         -3.0362232529        3.8199382200       -3.1460373320
 O          4.9985388820        2.4013771701       -0.1865984661
 H          4.8435653723        2.3989280224        0.7712643669
 H          4.3944743624        3.0572231526       -0.5686179285
 O          5.4297377255       -0.4219992419        2.1490641880
 H          5.9723818723       -0.7309552561        1.4200875642
 H          4.5129742291       -0.6633617972        1.9036007514
 O         -2.7130430931       -3.3888324023        2.3389585902
 H         -1.7689269487       -3.2119799485        2.2033427064
 H         -3.0368133068       -2.6993174458        2.9431032238
 O         -4.5275981577       -3.1040562991        0.4066648463
 H         -4.9891372493       -3.9281035501        0.2477596810
 H         -3.8301203422       -3.3028252029        1.0747196874
 O         -5.7628899100       -1.2426486163        1.9539867413
 H         -5.8479391591       -0.4322352494        1.4310568677
 H         -5.4470847200       -1.9343612689        1.3376532856
 O         -4.3835939985        2.5946670663        2.2573232682
 H         -4.9164510271        3.0513173214        2.9092385657
 H         -4.9858020613        2.0470135620        1.7185975205
 O          4.7224721948        2.0973902828        2.5867870936
 H          5.3463348105        2.5715767085        3.1370274560
 H          5.0787297726        1.1812819122        2.4826831306
 O          2.4294846305       -3.1109339608        3.0301571969
 H          2.9215248028       -3.3452918851        3.8178154524
 H          2.8517679031       -3.5689621660        2.2752046528
 O         -5.6316716898        1.0809188399        0.3934753657
 H         -4.7278401923        0.9613138123        0.0340969048
 H         -6.1948193347        1.3299303780       -0.3407202602
 O          2.8021804787       -0.7681611161        1.6600979542
 H          2.4863162962        0.0809492656        2.0290919161
 H          2.5646973874       -1.4730317316        2.2844952957
 O         -3.8779190762       -1.2980680940        3.7530392651
 H         -4.2788459112       -1.5480973154        4.5861621580
 H         -4.6266523506       -1.2441300230        3.0928938550
