  75
       -127.25942379
 O         -0.1681228132       -0.1618516088       -2.6359615342
 H          0.2740118629       -0.8320809442       -3.2029046964
 H         -0.5386735419        0.5552342223       -3.1963279857
 O         -0.3471760418        1.3181693784       -0.2595709457
 H          0.0399483400        2.0698973873       -0.7439389292
 H         -0.4439430365        0.6211344049       -0.9214304503
 O          2.2588565763       -1.7875373920       -1.1696115986
 H          2.5171890805       -0.8657166034       -1.3911151701
 H          1.4369442271       -1.7004104627       -0.6421953481
 O         -1.2228355736        2.2521641382        2.7512247844
 H         -1.9698176943        2.8258963980        2.5666217292
 H         -1.4472711729        1.4039368059        2.2998159583
 O          2.4803463969        2.6034573446        0.2782180362
 H          1.8016452737        3.0766031277        0.8439051429
 H          3.3377101698        2.8858886191        0.5967836758
 O          1.8581127133        0.1868763326        1.5289868839
 H          1.1239088043       -0.1692534279        1.0047628598
 H          2.1056661444        1.0197436133        1.0944060094
 O          0.6175063600        0.4995536072        3.9442192803
 H          1.1688860381        0.3894603719        3.1438937693
 H          0.0664907733        1.2745014870        3.7743301938
 O         -1.9116806113       -0.1209798609        1.7200210292
 H         -1.8846543049       -0.6718143751        2.5187906676
 H         -1.1580437881       -0.4255707898        1.1749621407
 O          0.5284078138        3.4607625956       -1.7259322439
 H          1.4483318570        3.4916401951       -1.4448881769
 H          0.0596057826        4.1664629387       -1.2431465725
 O          2.4065497685        0.7640018533       -1.8621286127
 H          1.4937361602        0.6812721074       -2.1832217850
 H          2.3998754126        1.4042075294       -1.1385174380
 O         -3.5991816442       -0.2882209002       -0.4753694574
 H         -3.1218195205       -1.0220502281       -0.8918227817
 H         -3.1441965418       -0.1342930342        0.3711680112
 O          1.0347833849       -2.3504166743       -3.5493145967
 H          0.4994631016       -3.1067500690       -3.2692206047
 H          1.6761288213       -2.2319453907       -2.8239431445
 O          0.7270878588        3.8436220045        1.7271999730
 H          0.0938788162        3.2126256631        2.1276541994
 H          0.1939572455        4.4223908464        1.1623734800
 O          0.9613100066       -4.7749184576        0.1267985317
 H          1.8935798605       -4.5027648415        0.1571385094
 H          0.5686398017       -4.4163187046        0.9359857374
 O         -2.4475330334        2.9329988911        0.2743545323
 H         -2.9969955555        2.7370654818       -0.5007751024
 H         -1.7375339994        2.2529760277        0.2337570080
 O          0.2546566971       -3.2041260480        2.3149523870
 H          1.1854171883       -2.9519888914        2.5407887207
 H         -0.2987537092       -2.7599930617        2.9800853121
 O         -0.0025485896       -1.4978301113        0.3368841596
 H          0.0643619935       -2.2022465615        1.0302793946
 H         -0.6945466690       -1.7846574646       -0.2996870129
 O         -1.7760955661       -2.0340634550       -1.5671704240
 H         -1.3040566237       -1.3599768357       -2.1005695975
 H         -1.4311889401       -2.8988555558       -1.8533965548
 O         -0.3838629715       -4.3024815992       -2.1066219939
 H          0.1443581267       -4.4493234860       -1.2803018571
 H         -0.7240016812       -5.1619584886       -2.3542860770
 O         -3.5216999274        1.8522415729       -1.9880478698
 H         -4.3508662822        1.8833701437       -2.4644776948
 H         -3.5450764419        1.0107491127       -1.4524859857
 O         -1.2212779074        2.0830703015       -3.5384601944
 H         -0.6241356707        2.6850523341       -3.0743168685
 H         -2.0485332642        2.0681513006       -3.0255503452
 O          3.5051761571       -3.6142120327        0.2307474273
 H          3.1338880697       -2.8959216050       -0.3401162032
 H          4.3021574506       -3.9253780614       -0.1970228632
 O         -1.0946674862       -1.4825289486        3.9623179018
 H         -0.3958802133       -0.7696500979        4.0148082808
 H         -1.3715818713       -1.6525550194        4.8618617296
 O         -0.9771338605        5.0419155429       -0.1147944868
 H         -1.5062000290        5.8284172842       -0.2422893008
 H         -1.6124066060        4.2841052016        0.0484845045
 O          2.7250436580       -2.2919787947        2.5564329792
 H          3.1581543348       -2.7774324190        1.8377790842
 H          2.5982111273       -1.3842439937        2.2399457112
