          42
 SCF done      -1.64463061
H            -0.5425054727           -1.1597997900            0.9180874644
C            -0.6112510744           -0.5412957354            0.0100749194
H            -0.5391309006           -1.1969145827           -0.8712437589
C             0.5103659226            0.5037878907           -0.0094871850
H             0.3911098900            1.1518925379            0.8600967265
H             0.3944399668            1.1152671221           -0.9056412656
O            -1.7891827199            0.2100258331           -0.0077307049
H            -2.5646584661           -0.3620748052            0.0026734605
N             1.8637423300           -0.1172781082            0.0059475216
H             1.9871274394           -0.7237038561           -0.8163107149
H             1.9839790218           -0.6890763987            0.8531042569
H             2.5930831826            0.6072401006           -0.0077051388
O             4.1311330609            1.3880966931            0.0739237531
H             4.6495967811            1.4969801221           -0.7264517430
H             4.7397520169            1.1486278418            0.7770864696
O             1.9851296372           -1.7372069247            2.0836181795
H             1.3387793210           -1.3805375417            2.7067187710
H             1.5632926926           -2.5098915950            1.6759160325
O            -0.0689700727           -0.0917038171            3.0179897695
H             0.3322771806            0.7470681445            3.2501519530
H            -1.0076864754           -0.0186779015            3.1993708237
O            -4.3567755329           -0.8019469322           -0.5383632478
H            -4.5437060746           -0.2531550375           -1.3047756116
H            -5.1001043161           -0.6962119899            0.0603648615
O             1.6623816155           -1.2919147347           -2.3594264238
H             1.2824260603           -2.1507777791           -2.5360795752
H             1.0533285632           -0.6447640933           -2.7680373255
O            -0.4320389219            0.2347503431           -3.1089268108
H            -1.2308226064           -0.2830456687           -3.2173591530
H            -0.7396588819            1.1218153878           -2.8515965646
O             0.4856417665           -3.2408175994            0.3342782623
H             0.9569850215           -3.3173726681           -0.4954262449
H            -0.4580369993           -3.3027235802            0.1370404741
O            -1.6123093450            2.2674409972           -1.7612492638
H            -1.3377434481            3.0420311701           -1.2711735502
H            -1.8387037681            1.5930239232           -1.0957843880
O            -2.3656716800           -2.7902256250           -0.0734991215
H            -2.6560287423           -2.8449724205            0.8386609669
H            -3.1269056764           -2.4766979854           -0.5745327642
B             4.2630388406           -1.4841138869           -0.2483703388
B             4.4528401823           -1.8849854147           -1.0988798543
B             4.5195273998           -2.1153849668            0.4267588410
          42
 SCF done      -1.48931346
H            -0.5425054727           -1.1597997900            0.9180874644
C            -0.6112510744           -0.5412957354            0.0100749194
H            -0.5391309006           -1.1969145827           -0.8712437589
C             0.5103659226            0.5037878907           -0.0094871850
H             0.3911098900            1.1518925379            0.8600967265
H             0.3944399668            1.1152671221           -0.9056412656
O            -1.7891827199            0.2100258331           -0.0077307049
H            -2.5646584661           -0.3620748052            0.0026734605
N             1.8637423300           -0.1172781082            0.0059475216
H             1.9871274394           -0.7237038561           -0.8163107149
H             1.9839790218           -0.6890763987            0.8531042569
H             2.5930831826            0.6072401006           -0.0077051388
O             4.1311330609            1.3880966931            0.0739237531
H             4.6495967811            1.4969801221           -0.7264517430
H             4.7397520169            1.1486278418            0.7770864696
O             1.9851296372           -1.7372069247            2.0836181795
H             1.3387793210           -1.3805375417            2.7067187710
H             1.5632926926           -2.5098915950            1.6759160325
O            -0.0689700727           -0.0917038171            3.0179897695
H             0.3322771806            0.7470681445            3.2501519530
H            -1.0076864754           -0.0186779015            3.1993708237
O            -4.3567755329           -0.8019469322           -0.5383632478
H            -4.5437060746           -0.2531550375           -1.3047756116
H            -5.1001043161           -0.6962119899            0.0603648615
O             1.6623816155           -1.2919147347           -2.3594264238
H             1.2824260603           -2.1507777791           -2.5360795752
H             1.0533285632           -0.6447640933           -2.7680373255
O            -0.4320389219            0.2347503431           -3.1089268108
H            -1.2308226064           -0.2830456687           -3.2173591530
H            -0.7396588819            1.1218153878           -2.8515965646
O             0.4856417665           -3.2408175994            0.3342782623
H             0.9569850215           -3.3173726681           -0.4954262449
H            -0.4580369993           -3.3027235802            0.1370404741
O            -1.6123093450            2.2674409972           -1.7612492638
H            -1.3377434481            3.0420311701           -1.2711735502
H            -1.8387037681            1.5930239232           -1.0957843880
O            -2.3656716800           -2.7902256250           -0.0734991215
H            -2.6560287423           -2.8449724205            0.8386609669
H            -3.1269056764           -2.4766979854           -0.5745327642
B             1.5719475329            2.4039764120            1.7649230497
B             2.5267144650            2.4484397125            1.8457443795
B             1.2923110848            3.1776002958            1.2715687043
          42
 SCF done      -1.44013857
H            -0.5425054727           -1.1597997900            0.9180874644
C            -0.6112510744           -0.5412957354            0.0100749194
H            -0.5391309006           -1.1969145827           -0.8712437589
C             0.5103659226            0.5037878907           -0.0094871850
H             0.3911098900            1.1518925379            0.8600967265
H             0.3944399668            1.1152671221           -0.9056412656
O            -1.7891827199            0.2100258331           -0.0077307049
H            -2.5646584661           -0.3620748052            0.0026734605
N             1.8637423300           -0.1172781082            0.0059475216
H             1.9871274394           -0.7237038561           -0.8163107149
H             1.9839790218           -0.6890763987            0.8531042569
H             2.5930831826            0.6072401006           -0.0077051388
O             4.1311330609            1.3880966931            0.0739237531
H             4.6495967811            1.4969801221           -0.7264517430
H             4.7397520169            1.1486278418            0.7770864696
O             1.9851296372           -1.7372069247            2.0836181795
H             1.3387793210           -1.3805375417            2.7067187710
H             1.5632926926           -2.5098915950            1.6759160325
O            -0.0689700727           -0.0917038171            3.0179897695
H             0.3322771806            0.7470681445            3.2501519530
H            -1.0076864754           -0.0186779015            3.1993708237
O            -4.3567755329           -0.8019469322           -0.5383632478
H            -4.5437060746           -0.2531550375           -1.3047756116
H            -5.1001043161           -0.6962119899            0.0603648615
O             1.6623816155           -1.2919147347           -2.3594264238
H             1.2824260603           -2.1507777791           -2.5360795752
H             1.0533285632           -0.6447640933           -2.7680373255
O            -0.4320389219            0.2347503431           -3.1089268108
H            -1.2308226064           -0.2830456687           -3.2173591530
H            -0.7396588819            1.1218153878           -2.8515965646
O             0.4856417665           -3.2408175994            0.3342782623
H             0.9569850215           -3.3173726681           -0.4954262449
H            -0.4580369993           -3.3027235802            0.1370404741
O            -1.6123093450            2.2674409972           -1.7612492638
H            -1.3377434481            3.0420311701           -1.2711735502
H            -1.8387037681            1.5930239232           -1.0957843880
O            -2.3656716800           -2.7902256250           -0.0734991215
H            -2.6560287423           -2.8449724205            0.8386609669
H            -3.1269056764           -2.4766979854           -0.5745327642
B             4.2477731872           -1.5109250076           -0.1019049991
B             4.6815272100           -1.8375298483           -0.8926487583
B             4.5099989079           -2.0823544823            0.6225223565
          42
 SCF done      -1.31605074
H            -0.5425054727           -1.1597997900            0.9180874644
C            -0.6112510744           -0.5412957354            0.0100749194
H            -0.5391309006           -1.1969145827           -0.8712437589
C             0.5103659226            0.5037878907           -0.0094871850
H             0.3911098900            1.1518925379            0.8600967265
H             0.3944399668            1.1152671221           -0.9056412656
O            -1.7891827199            0.2100258331           -0.0077307049
H            -2.5646584661           -0.3620748052            0.0026734605
N             1.8637423300           -0.1172781082            0.0059475216
H             1.9871274394           -0.7237038561           -0.8163107149
H             1.9839790218           -0.6890763987            0.8531042569
H             2.5930831826            0.6072401006           -0.0077051388
O             4.1311330609            1.3880966931            0.0739237531
H             4.6495967811            1.4969801221           -0.7264517430
H             4.7397520169            1.1486278418            0.7770864696
O             1.9851296372           -1.7372069247            2.0836181795
H             1.3387793210           -1.3805375417            2.7067187710
H             1.5632926926           -2.5098915950            1.6759160325
O            -0.0689700727           -0.0917038171            3.0179897695
H             0.3322771806            0.7470681445            3.2501519530
H            -1.0076864754           -0.0186779015            3.1993708237
O            -4.3567755329           -0.8019469322           -0.5383632478
H            -4.5437060746           -0.2531550375           -1.3047756116
H            -5.1001043161           -0.6962119899            0.0603648615
O             1.6623816155           -1.2919147347           -2.3594264238
H             1.2824260603           -2.1507777791           -2.5360795752
H             1.0533285632           -0.6447640933           -2.7680373255
O            -0.4320389219            0.2347503431           -3.1089268108
H            -1.2308226064           -0.2830456687           -3.2173591530
H            -0.7396588819            1.1218153878           -2.8515965646
O             0.4856417665           -3.2408175994            0.3342782623
H             0.9569850215           -3.3173726681           -0.4954262449
H            -0.4580369993           -3.3027235802            0.1370404741
O            -1.6123093450            2.2674409972           -1.7612492638
H            -1.3377434481            3.0420311701           -1.2711735502
H            -1.8387037681            1.5930239232           -1.0957843880
O            -2.3656716800           -2.7902256250           -0.0734991215
H            -2.6560287423           -2.8449724205            0.8386609669
H            -3.1269056764           -2.4766979854           -0.5745327642
B             1.5766059971            2.5663400280            1.5358230924
B             2.5313879422            2.5898360910            1.6248643151
B             1.3292980252            3.2764882908            0.9403256712
          42
 SCF done      -1.25149148
H            -0.5425054727           -1.1597997900            0.9180874644
C            -0.6112510744           -0.5412957354            0.0100749194
H            -0.5391309006           -1.1969145827           -0.8712437589
C             0.5103659226            0.5037878907           -0.0094871850
H             0.3911098900            1.1518925379            0.8600967265
H             0.3944399668            1.1152671221           -0.9056412656
O            -1.7891827199            0.2100258331           -0.0077307049
H            -2.5646584661           -0.3620748052            0.0026734605
N             1.8637423300           -0.1172781082            0.0059475216
H             1.9871274394           -0.7237038561           -0.8163107149
H             1.9839790218           -0.6890763987            0.8531042569
H             2.5930831826            0.6072401006           -0.0077051388
O             4.1311330609            1.3880966931            0.0739237531
H             4.6495967811            1.4969801221           -0.7264517430
H             4.7397520169            1.1486278418            0.7770864696
O             1.9851296372           -1.7372069247            2.0836181795
H             1.3387793210           -1.3805375417            2.7067187710
H             1.5632926926           -2.5098915950            1.6759160325
O            -0.0689700727           -0.0917038171            3.0179897695
H             0.3322771806            0.7470681445            3.2501519530
H            -1.0076864754           -0.0186779015            3.1993708237
O            -4.3567755329           -0.8019469322           -0.5383632478
H            -4.5437060746           -0.2531550375           -1.3047756116
H            -5.1001043161           -0.6962119899            0.0603648615
O             1.6623816155           -1.2919147347           -2.3594264238
H             1.2824260603           -2.1507777791           -2.5360795752
H             1.0533285632           -0.6447640933           -2.7680373255
O            -0.4320389219            0.2347503431           -3.1089268108
H            -1.2308226064           -0.2830456687           -3.2173591530
H            -0.7396588819            1.1218153878           -2.8515965646
O             0.4856417665           -3.2408175994            0.3342782623
H             0.9569850215           -3.3173726681           -0.4954262449
H            -0.4580369993           -3.3027235802            0.1370404741
O            -1.6123093450            2.2674409972           -1.7612492638
H            -1.3377434481            3.0420311701           -1.2711735502
H            -1.8387037681            1.5930239232           -1.0957843880
O            -2.3656716800           -2.7902256250           -0.0734991215
H            -2.6560287423           -2.8449724205            0.8386609669
H            -3.1269056764           -2.4766979854           -0.5745327642
B             4.1691369808           -1.5536998280           -0.1610154655
B             4.5200769058           -1.8428579524           -1.0055968500
B             4.5168254751           -2.1458007379            0.5087741957
          42
 SCF done      -1.10196528
H            -0.5425054727           -1.1597997900            0.9180874644
C            -0.6112510744           -0.5412957354            0.0100749194
H            -0.5391309006           -1.1969145827           -0.8712437589
C             0.5103659226            0.5037878907           -0.0094871850
H             0.3911098900            1.1518925379            0.8600967265
H             0.3944399668            1.1152671221           -0.9056412656
O            -1.7891827199            0.2100258331           -0.0077307049
H            -2.5646584661           -0.3620748052            0.0026734605
N             1.8637423300           -0.1172781082            0.0059475216
H             1.9871274394           -0.7237038561           -0.8163107149
H             1.9839790218           -0.6890763987            0.8531042569
H             2.5930831826            0.6072401006           -0.0077051388
O             4.1311330609            1.3880966931            0.0739237531
H             4.6495967811            1.4969801221           -0.7264517430
H             4.7397520169            1.1486278418            0.7770864696
O             1.9851296372           -1.7372069247            2.0836181795
H             1.3387793210           -1.3805375417            2.7067187710
H             1.5632926926           -2.5098915950            1.6759160325
O            -0.0689700727           -0.0917038171            3.0179897695
H             0.3322771806            0.7470681445            3.2501519530
H            -1.0076864754           -0.0186779015            3.1993708237
O            -4.3567755329           -0.8019469322           -0.5383632478
H            -4.5437060746           -0.2531550375           -1.3047756116
H            -5.1001043161           -0.6962119899            0.0603648615
O             1.6623816155           -1.2919147347           -2.3594264238
H             1.2824260603           -2.1507777791           -2.5360795752
H             1.0533285632           -0.6447640933           -2.7680373255
O            -0.4320389219            0.2347503431           -3.1089268108
H            -1.2308226064           -0.2830456687           -3.2173591530
H            -0.7396588819            1.1218153878           -2.8515965646
O             0.4856417665           -3.2408175994            0.3342782623
H             0.9569850215           -3.3173726681           -0.4954262449
H            -0.4580369993           -3.3027235802            0.1370404741
O            -1.6123093450            2.2674409972           -1.7612492638
H            -1.3377434481            3.0420311701           -1.2711735502
H            -1.8387037681            1.5930239232           -1.0957843880
O            -2.3656716800           -2.7902256250           -0.0734991215
H            -2.6560287423           -2.8449724205            0.8386609669
H            -3.1269056764           -2.4766979854           -0.5745327642
B             4.2253651895           -1.5087984817            0.0419156000
B             4.8321753542           -1.7850905783           -0.6476734576
B             4.3675098939           -2.0871600697            0.7938342946
          42
 SCF done      -0.67574770
H            -0.5425054727           -1.1597997900            0.9180874644
C            -0.6112510744           -0.5412957354            0.0100749194
H            -0.5391309006           -1.1969145827           -0.8712437589
C             0.5103659226            0.5037878907           -0.0094871850
H             0.3911098900            1.1518925379            0.8600967265
H             0.3944399668            1.1152671221           -0.9056412656
O            -1.7891827199            0.2100258331           -0.0077307049
H            -2.5646584661           -0.3620748052            0.0026734605
N             1.8637423300           -0.1172781082            0.0059475216
H             1.9871274394           -0.7237038561           -0.8163107149
H             1.9839790218           -0.6890763987            0.8531042569
H             2.5930831826            0.6072401006           -0.0077051388
O             4.1311330609            1.3880966931            0.0739237531
H             4.6495967811            1.4969801221           -0.7264517430
H             4.7397520169            1.1486278418            0.7770864696
O             1.9851296372           -1.7372069247            2.0836181795
H             1.3387793210           -1.3805375417            2.7067187710
H             1.5632926926           -2.5098915950            1.6759160325
O            -0.0689700727           -0.0917038171            3.0179897695
H             0.3322771806            0.7470681445            3.2501519530
H            -1.0076864754           -0.0186779015            3.1993708237
O            -4.3567755329           -0.8019469322           -0.5383632478
H            -4.5437060746           -0.2531550375           -1.3047756116
H            -5.1001043161           -0.6962119899            0.0603648615
O             1.6623816155           -1.2919147347           -2.3594264238
H             1.2824260603           -2.1507777791           -2.5360795752
H             1.0533285632           -0.6447640933           -2.7680373255
O            -0.4320389219            0.2347503431           -3.1089268108
H            -1.2308226064           -0.2830456687           -3.2173591530
H            -0.7396588819            1.1218153878           -2.8515965646
O             0.4856417665           -3.2408175994            0.3342782623
H             0.9569850215           -3.3173726681           -0.4954262449
H            -0.4580369993           -3.3027235802            0.1370404741
O            -1.6123093450            2.2674409972           -1.7612492638
H            -1.3377434481            3.0420311701           -1.2711735502
H            -1.8387037681            1.5930239232           -1.0957843880
O            -2.3656716800           -2.7902256250           -0.0734991215
H            -2.6560287423           -2.8449724205            0.8386609669
H            -3.1269056764           -2.4766979854           -0.5745327642
B             1.4816143199            2.4503853829            1.5843262679
B             2.4394411713            2.4072217770            1.6124970493
B             1.2471855879            3.2141677923            1.0535074969
