  99
       -167.93910567
 O          3.3184728226        0.7654319705        2.1217455755
 H          3.4660802953       -0.0701717841        1.6348866056
 H          4.2155343960        1.0246975586        2.3783545025
 O          2.1520477118       -0.5260427944        4.2274284616
 H          2.5781583141        0.0787903964        3.5916840843
 H          1.2072171704       -0.5036084341        4.0097835606
 O          4.6064209248        2.8922274847       -1.4546482140
 H          4.0050635765        2.6566776653       -2.1746595339
 H          4.0128833583        3.1167788005       -0.7171355913
 O         -1.8675951662       -3.6396286258       -1.3030846032
 H         -1.2667970360       -3.1390717542       -1.9176603547
 H         -1.8707107657       -4.5448938810       -1.6161942638
 O          0.0411803907        2.9740625086        1.4474448965
 H         -0.8049006458        3.3317524904        1.0539458847
 H         -0.0084769862        3.1528948391        2.3871641377
 O         -3.7762019738       -2.1529035586        2.7614761404
 H         -2.9958195826       -2.5889811631        2.3905148546
 H         -3.4666509000       -1.3484896923        3.2084650911
 O         -1.3187467468        0.3698696693       -3.3727215010
 H         -2.1889288504        0.0097519898       -3.6253363730
 H         -1.5249898256        1.2182135049       -2.9372559456
 O          6.0569065085        0.5348939899        2.0025394615
 H          5.9717648917        0.6246251797        1.0307362716
 H          6.8964322312        0.9237451275        2.2481944565
 O          5.5402545325        0.6021743546       -0.6513720407
 H          5.2945402764        1.5208940169       -0.9615223795
 H          6.0907454753        0.2149016738       -1.3324733791
 O          2.8523292918        0.0920940021       -0.6771851108
 H          3.8216697657        0.1076220830       -0.5743452649
 H          2.6489534773        0.7843691095       -1.3383309255
 O         -2.1901254842        2.7183321090       -2.1516099268
 H         -2.1570227091        3.4514892849       -2.7686942826
 H         -3.1359358650        2.3940287580       -2.1648611727
 O          1.9844074442       -2.3465028955       -1.2753144812
 H          2.7999792018       -2.8606197656       -1.3884497939
 H          2.3131838247       -1.4296190458       -1.1408254212
 O         -2.2504085326        3.6819005486        0.4697623298
 H         -2.2888487632        3.4242081720       -0.4672621468
 H         -2.8845975877        3.1241247626        0.9572857671
 O          4.5692686009       -3.0572302707       -0.9849275138
 H          5.1654093732       -3.7938597476       -0.8517805028
 H          4.5783026590       -2.5267893494       -0.1655072689
 O         -3.8844597867       -0.5277396205       -3.5848770905
 H         -4.0230209977       -1.2230732783       -2.8904689874
 H         -4.3383841973       -0.8367832023       -4.3695371177
 O         -0.3733044437       -0.6312155527        3.1259011109
 H         -1.2288832322       -0.2532185467        3.4024664602
 H         -0.5190392458       -1.5736286574        3.0026595143
 O         -4.2265476432       -2.3128998687       -1.7034534816
 H         -4.6107212958       -2.0769362305       -0.8428439325
 H         -3.4236615431       -2.8332756332       -1.5233866232
 O         -0.2543495547       -2.2869744979       -2.8737221260
 H         -0.4861644437       -1.3661917760       -3.0536265120
 H          0.6180474760       -2.3033766007       -2.4388829601
 O         -3.6813871867        1.7377097161        1.8180910983
 H         -4.5526869590        1.6409214761        1.3997766759
 H         -3.1548273020        1.0111257516        1.4343552063
 O          2.6215713733        2.8470029669        0.4048955052
 H          2.9015013284        2.1699708661        1.0431751605
 H          1.7907108952        3.2037581593        0.7404342086
 O         -2.8561119611        0.2331761812        3.9154041590
 H         -3.2259471028        0.8962639166        3.2942014210
 H         -3.1026777907        0.5019811355        4.8013178615
 O         -5.7406587276        0.9221566369        0.2241000169
 H         -6.6840988013        1.0895875167        0.2185038066
 H         -5.6167074061       -0.0402420831        0.3801849977
 O          4.3941599566       -1.6443315024        1.3624908526
 H          5.1780010605       -1.2116683492        1.7249053255
 H          3.9954933238       -2.1734609216        2.0793198123
 O         -4.5886354722        1.7260382259       -2.1850412300
 H         -4.4672491360        0.9193645362       -2.7166791506
 H         -4.9807832834        1.4549367284       -1.3384813870
 O          1.1028530947       -2.4545460770        1.2973368807
 H          1.7583106784       -2.7446147464        1.9469488768
 H          1.5047084898       -2.5587328837        0.4120974332
 O         -1.5140742517       -2.8764751718        1.2787796891
 H         -0.5330214035       -2.8450147098        1.3199485740
 H         -1.7133999849       -3.2808024740        0.4149929679
 O          0.8757823726        1.1911479621       -4.7117619759
 H          0.0323998583        0.8458850639       -4.3588702123
 H          1.1738011891        0.5792587035       -5.3857293582
 O          2.9702847684       -2.8360972631        3.3197849687
 H          3.1842152992       -3.4568746790        4.0161925255
 H          2.6771982848       -1.9912257926        3.7651044440
 O          2.2094155677        1.9427413293       -2.5281301184
 H          1.7877067012        1.6936519959       -3.3784097242
 H          1.7109243391        2.6804386146       -2.1700781926
 O         -5.3712293084       -1.6881722923        0.7364660854
 H         -6.1332536521       -2.2481707397        0.8931585620
 H         -4.7588149081       -1.8393379096        1.5077205079
 O         -2.3620620027       -0.1898461384        0.5887727157
 H         -2.0926225957       -1.0757450838        0.8712409261
 H         -1.5508796406        0.1855059397        0.1857606487
 O          0.8920602697        4.1016605538       -1.4957825499
 H          1.6236831878        4.1356290805       -0.8722381087
 H          0.2145489547        3.5457058787       -1.0951160982
 O          0.0377123634        0.7417246419       -0.2126413277
 H          0.1569163668        1.4127556053        0.4729883858
 H          0.8189533637        0.1820673729       -0.1628885588
