  384
       -651.84109964
 O         -3.4046612072        4.9366470775       -4.4275020756
 H         -4.3745453137        4.9702632195       -4.5027885267
 H         -3.2616155822        4.9012852980       -3.4606329576
 O          1.5734677494        1.5558607647       -4.3392689060
 H          1.6208374951        1.2898678352       -5.2739387077
 H          0.6224139761        1.6672840329       -4.1145004856
 O         -0.4696112944        4.5946310622       -4.6110089413
 H         -1.3477066125        4.9207198902       -4.8342935769
 H         -0.4504845966        4.6087699490       -3.6285023500
 O         -0.9718825429        1.6999664564       -3.6316759679
 H         -1.3353143889        2.0071925409       -2.7677960200
 H         -1.0021844648        0.7264142016       -3.6277493993
 O          4.8082444028        3.3130484281       -0.3421214348
 H          4.5691368640        3.5143536172       -1.2704038036
 H          5.3802241223        2.5182397534       -0.4153069131
 O          4.1214202383        0.8309173041       -3.7948345852
 H          3.1886051890        0.9724173567       -4.0237631575
 H          4.1485844119        0.1845837295       -3.0544836101
 O          0.0044901483        7.1913422568       -0.4177627418
 H         -0.0996527913        6.8764918529        0.4881844392
 H          0.9558184915        7.3242727928       -0.5428815362
 O          6.3382561942        1.1773692639       -0.6467297045
 H          6.4795704926        1.0666204914       -1.6116648199
 H          7.1876915067        1.5042830277       -0.2571090315
 O         -0.5573372829        2.5501680975       -6.5134903162
 H         -1.5246112243        2.5715616692       -6.5196773040
 H         -0.3122836152        3.2192021230       -5.8501283120
 O         -4.3363694640        1.0565186510       -3.4365478354
 H         -3.8574352150        1.5778468266       -4.1285566755
 H         -3.6686276519        0.5627479197       -2.9168013125
 O         -2.3983744682        0.6996848904        0.7234829886
 H         -1.8280055395        1.4211226918        1.0622304434
 H         -2.4999361717        0.8827160177       -0.2227789929
 O          2.5212875770       -2.6515386648       -0.0364203504
 H          2.0297938219       -1.8158363127       -0.1344946877
 H          3.3447158496       -2.4408255130        0.4659894052
 O          2.3692520262        0.5754534130       -6.7558545042
 H          3.0744937166       -0.0796380544       -6.7124702002
 H          1.5478947639        0.1146186842       -6.9728380149
 O         -5.0772218166       -0.9955155628       -4.9569205733
 H         -4.8660508519       -0.1717377244       -4.4547949962
 H         -4.3339934344       -1.1130776102       -5.5687944075
 O          0.3953927536       -4.1298912156       -5.4458158685
 H          0.6594956220       -4.6772987058       -4.6881105436
 H          1.1505914010       -3.5501520394       -5.6133804677
 O         -2.9767947863        2.4269089307       -5.1953194313
 H         -2.1634626891        2.2281638924       -4.6783328909
 H         -3.1771852640        3.3703993797       -5.0033570158
 O          0.1524594323       -2.4961865153        3.3226185935
 H         -0.4242535488       -2.0566712849        2.6695863826
 H          0.6197720202       -3.1759966961        2.7910245041
 O         -0.9910379997        2.1739152984        6.1938772459
 H         -1.9065414754        2.1644449340        6.4907153521
 H         -1.0087143933        1.7927469031        5.2917625674
 O          6.2874520129       -1.1830268457        5.1128845128
 H          5.6973592204       -0.4155012920        5.1487327508
 H          5.6794814743       -1.9391218393        5.0150588699
 O          1.5346019396        4.7061225080        1.3183665757
 H          1.9309603268        3.8562922866        1.5938198101
 H          2.1689597490        5.3917045372        1.6044057057
 O         -3.4736340363        3.4500109810        1.0857219584
 H         -4.0882997077        4.2005134178        1.1447925888
 H         -3.8159474863        2.8633523424        0.3922767339
 O         -1.0265121617        0.9791821877        3.7224109945
 H         -1.8753189618        1.3666390139        3.4251549104
 H         -1.2558524046        0.0995456761        4.0950893453
 O         -1.8393339686       -3.3963066405       -4.2134630015
 H         -1.0795121346       -3.6670756930       -4.7802379465
 H         -1.4141996136       -3.0059750350       -3.4266691758
 O          2.5750690056       -1.1718883683        3.3188913002
 H          1.8077670327       -1.6706596679        3.6466971354
 H          2.1508885479       -0.4567613901        2.8002699031
 O          5.7225676509        0.8325057592        2.0465101645
 H          5.6431786854        0.8721330242        1.0859973722
 H          6.2060883978        1.6316847325        2.3146041798
 O         -2.5416414815       -0.4882762646       -2.0645704671
 H         -1.9129540453       -0.8435555842       -2.7062706754
 H         -2.8103929077       -1.2374448380       -1.5054726875
 O         -4.1686365859        4.9707169518        3.7878469628
 H         -4.7698689010        4.2954014991        4.1480756864
 H         -3.2697884347        4.6207337968        3.8578820135
 O          1.8274411265       -1.9181116423       -2.9956290618
 H          2.6202042741       -1.6265666216       -2.5135629453
 H          2.1560519583       -2.2795026833       -3.8418380752
 O         -4.3733453798       -2.6679435003       -3.0408247411
 H         -4.6997874319       -2.1081479793       -3.7830404651
 H         -3.5807488151       -3.1045677146       -3.3663073574
 O         -4.8149891595       -6.1108655225        1.9583885850
 H         -5.0765211527       -6.0386090516        1.0360898435
 H         -5.4469406872       -5.5600345150        2.4667856572
 O          4.0442334777        0.5372899710        4.8857803257
 H          3.6397072814       -0.0927120501        4.2566361697
 H          3.2901446953        0.8515978425        5.4073750787
 O         -3.5569930926       -1.8886600267        2.8972745801
 H         -3.3279118478       -2.7302600587        2.4513414137
 H         -3.9989225757       -1.3054419226        2.2440610905
 O          6.8205418522        0.4423554608       -3.1450939071
 H          6.5951082408        1.0009642376       -3.9166972025
 H          6.5308610120       -0.4704145841       -3.3705644314
 O          9.3686529202        0.0719332197       -2.7110542814
 H          8.4018574133        0.2285648880       -2.8963342611
 H          9.7428456062       -0.3038476815       -3.5073573440
 O         -3.2030279464       -2.5616389455       -0.3398634551
 H         -3.2303115756       -3.5189192787       -0.5115553665
 H         -2.4476627411       -2.3898487026        0.2576279006
 O         -3.6534950108       -5.2815293069       -0.6729038920
 H         -3.3315009240       -5.4729476335       -1.5822441740
 H         -3.1393409847       -5.8561491758       -0.0835041438
 O         -5.3925778326       -2.1871646698        4.7289640801
 H         -4.6907608214       -2.0910225345        4.0333297436
 H         -6.0203356592       -2.8117825574        4.3431359131
 O          4.9615170423       -4.7951404096        2.3580735491
 H          5.9146155308       -4.8101237491        2.2152338979
 H          4.5501436697       -5.2776309021        1.5938232898
 O          2.3905893846       -5.7060849396        3.5956296720
 H          2.1984375206       -5.0879388319        4.3395862276
 H          3.3463755443       -5.7380113902        3.5052613784
 O         -0.8548328172        2.8073742409        1.3285744622
 H         -0.3162372674        2.9046630055        2.1240791024
 H         -1.6297481451        3.3805222327        1.4283950378
 O         -2.0013515449        2.5004343661       -1.3437148794
 H         -1.3829816063        2.8077097800       -0.6722110275
 H         -2.5308544198        3.2977721710       -1.5627875456
 O         -5.4188352719       -0.7159536718       -1.3387012097
 H         -6.1560738404       -0.6737846442       -1.9732567362
 H         -4.8135897243       -1.3846089695       -1.6880630269
 O          6.3955783516        1.8366997683       -5.4184106145
 H          5.5265624347        2.2589346450       -5.6214852996
 H          6.5670646914        1.2600229680       -6.1637595519
 O         -4.8338242890       -0.1989337108        1.3202160187
 H         -5.2509047053       -0.4545649968        0.4823995203
 H         -4.0191749820        0.2892081574        1.0890381734
 O         -0.4832410444       -2.9908740909       -1.8745319109
 H          0.3094975617       -2.4440676025       -1.8141599209
 H         -0.6608342135       -3.3925774004       -0.9966387382
 O         -7.6549723677        2.4389166970       -0.9135951204
 H         -7.5141170641        1.5192175553       -0.6128412652
 H         -8.3801645496        2.7738888685       -0.3452622761
 O          3.1362699141        2.5812115327        1.6600265102
 H          3.6789967010        2.9034448891        0.9138601964
 H          3.6756105825        2.7137859250        2.4728052801
 O          2.2723553201        4.6491862507       -1.2235077742
 H          2.4944604760        3.6995785431       -1.3890463884
 H          1.9412322715        4.6529200295       -0.2972675701
 O         -1.4777826250        4.2089862641        4.2138365240
 H         -1.5711538995        4.0968548425        5.1634721752
 H         -0.6356052013        3.7479207007        4.0028287366
 O         -3.4373903650        1.9730254330        3.2929670006
 H         -4.2173594495        1.3988228879        3.3080596169
 H         -3.5301095273        2.5588677466        2.5083510059
 O          8.0914646034       -3.5517376968       -2.5856936462
 H          7.4021263206       -3.9864872797       -2.0515719686
 H          8.6310832299       -3.0650413556       -1.9520939427
 O          1.4473115395       -7.0927340639        0.6192790985
 H          0.9192886980       -6.8851797574        1.3987266698
 H          0.8412133793       -7.0404875392       -0.1341306879
 O          2.8676256434       -2.7689277024       -5.3207618039
 H          3.4595249801       -3.4445342001       -4.9533005480
 H          3.4665450527       -2.0482116583       -5.6063751121
 O         -3.3611253238       -3.4834047437        6.1074536649
 H         -3.1199172723       -2.7893140096        6.7242930613
 H         -4.1694789314       -3.1651483171        5.6664197979
 O          3.9057897189       -5.9989392795        0.2760968143
 H          3.1157136919       -6.5228000381        0.5042656229
 H          3.6120245465       -5.4540085711       -0.4847770170
 O         -6.4270177058       -4.1994677926        2.9193808065
 H         -6.0504063350       -3.6353887814        2.2000634838
 H         -7.3613544732       -4.2654926771        2.7091511239
 O          7.3091297736        3.4763358400       -3.2625030180
 H          7.3096757406        3.0803152634       -4.1407140894
 H          6.3676487672        3.6072358392       -3.0615961231
 O          3.5473300916        0.0819013171        0.6041196619
 H          3.8994319696       -0.5559758291        1.2373877829
 H          3.3725855262        0.8975304477        1.1035583213
 O         -4.7779827641        1.8563543161       -0.7882145244
 H         -4.9776412747        0.9222963902       -0.9975627671
 H         -4.5450566262        2.2587110234       -1.6291787306
 O          4.5807489280        2.9349021630        3.8571008146
 H          5.5178710960        3.0484420857        3.6615012494
 H          4.4742366837        2.0406357461        4.2575687716
 O          1.1056093195        0.7071931816        2.1768863524
 H          0.2953716072        0.7957145987        2.7289457684
 H          1.5708352404        1.5516835958        2.2355421260
 O          3.5293885445        6.4546783382        1.7811346109
 H          4.3999377186        6.0465266482        1.6236536831
 H          3.3331247575        6.9650046659        0.9820746061
 O         -6.1118996123        3.1370559837        4.6034280656
 H         -6.7103950014        3.6329282641        4.0216230674
 H         -6.0287102834        2.2499324391        4.2170947185
 O         -0.6746369211       -6.6649582934       -1.1609098911
 H         -1.2337613043       -7.3074394050       -0.7126061329
 H         -0.7904667659       -5.8326357500       -0.6248995246
 O         -3.7918695553        2.2129425371        5.9464402527
 H         -3.5686595542        2.2191341264        4.9903694298
 H         -4.6581147958        2.6291511720        5.9911689824
 O          3.0894629514       -4.5043887596       -1.7911703140
 H          2.2605174472       -4.7774798701       -2.2390501374
 H          2.8667564416       -3.7107194405       -1.2549185418
 O          0.7581914987       -5.1162738191       -2.9123514005
 H          0.3958409850       -5.8717675267       -2.4346400485
 H          0.2699285068       -4.3236372662       -2.5797184349
 O         -6.9439433531        1.9303975493       -3.4690901565
 H         -6.0035841049        1.6922863625       -3.3938180632
 H         -7.2441148906        2.1944602836       -2.5790882252
 O          9.4551102777       -0.3096143670        1.6655009023
 H          8.6183224833       -0.6456780236        2.0966573789
 H         10.1177644177       -0.2693778547        2.3539006637
 O         -6.0785639440        4.5922744460       -3.9103281244
 H         -6.1819341180        4.8210064167       -2.9783003087
 H         -6.4772553097        3.7142571524       -4.0093959709
 O         -9.3147091289        3.0917236121        1.0850785672
 H         -8.8237573195        3.7855255019        1.5570575522
 H         -9.2171759438        2.3076083335        1.6419857139
 O         -7.3519515065       -0.7202562411       -3.2968340439
 H         -6.8213750410       -1.0316584786       -4.0402753445
 H         -7.4222521144        0.2505152753       -3.4304710244
 O         -0.3040653019        4.8412444933       -1.9369179013
 H          0.6588212348        4.7297195126       -1.8022822726
 H         -0.4914205859        5.7012673571       -1.5353015211
 O          0.8966781180        3.0984827532        3.6197976503
 H          1.5020346491        3.8413371270        3.8250013834
 H          1.0951017164        2.4090045222        4.2788972157
 O          6.3630205597       -2.0332114354       -3.9335276230
 H          5.6284135311       -2.6691214091       -3.8281396235
 H          7.1222401329       -2.5153686734       -3.5392485603
 O          4.6882303673       -4.1268515150       -3.8068158056
 H          5.3456601883       -4.8214421034       -3.7705934736
 H          4.1362356992       -4.2335422574       -2.9883905091
 O         -8.1189228122       -2.4048062480       -1.2487050146
 H         -8.1146912799       -1.8626016320       -2.0540527320
 H         -7.4488666045       -3.0893007273       -1.4104033039
 O         -5.0274166939        5.6846167270        1.3927396786
 H         -4.7297876365        5.5540874721        2.3253126833
 H         -4.3536763105        6.2390841522        0.9740684426
 O         -3.4627422793        4.6525966186       -1.7472063837
 H         -3.1103772123        5.3140798470       -1.1208161848
 H         -4.4208394759        4.5969942749       -1.5478767103
 O         -5.6024830894       -2.8005048415        0.8289027123
 H         -5.9851172763       -3.2502420004        0.0581168138
 H         -4.6879171683       -2.6030077836        0.5348031538
 O         -2.2645636783       -7.0546952007        1.0745540888
 H         -1.5455696010       -6.8674879902        1.7017012872
 H         -3.0520243812       -7.1842623349        1.6114811438
 O          4.0603300647        2.8316037156       -6.2205413370
 H          3.5142181077        3.4405944371       -5.6967565919
 H          3.4622316767        2.1496078818       -6.5513920299
 O         -3.7823417405       -0.4617194930        6.4506746879
 H         -3.8452740225        0.5093077267        6.3373879476
 H         -4.5644256480       -0.8437347818        6.0365136408
 O          4.5717670264        3.4303434779       -2.9890374527
 H          4.5117576900        2.5085756541       -3.3075933930
 H          3.8498579300        3.9049905298       -3.4294662788
 O         -1.5008306590       -4.3549509628        4.2996995523
 H         -2.1106500291       -4.0904048991        5.0133990905
 H         -0.8922181405       -3.5992601612        4.1345913719
 O          7.3748533879       -3.6412478978        1.4859946431
 H          7.2428889632       -2.7636298421        1.9162431368
 H          8.2924832952       -3.6613866333        1.2136514555
 O         -0.2657974198       -6.4091726826        2.9335275675
 H         -0.7308004441       -5.7557672028        3.4832155446
 H          0.6250280292       -6.4339498061        3.3046205241
 O          4.0953655440       -0.9591494206       -1.8243382656
 H          4.9200516971       -1.4384311881       -1.6522356586
 H          3.8522953045       -0.5612033053       -0.9651667882
 O         -0.3110715947       -0.1245836189       -6.4931791105
 H         -0.4005824119        0.8554061992       -6.5058377698
 H         -1.1893584542       -0.4817635009       -6.6826872005
 O          9.1353457995       -1.7215448481       -0.6718146073
 H          9.3791157060       -1.2802848583        0.1587378141
 H          9.3169509136       -1.0667064639       -1.3740810033
 O         -0.8683879605       -4.4771811421        0.2679831186
 H         -0.0615292750       -4.4490609168        0.8271590793
 H         -1.6221292917       -4.4116454212        0.8955167580
 O         -2.6692121480       -1.6779681958       -6.1812139785
 H         -2.7533980900       -2.3204470656       -6.8857884975
 H         -2.3495045986       -2.1790313277       -5.3998111541
 O          7.2293814105       -1.2298326606        2.6591624154
 H          7.0353938340       -1.2746217001        3.6282745862
 H          6.5884769437       -0.5407816692        2.3528860284
 O          4.3690585918       -2.9465303556        4.3520713344
 H          4.6199791884       -3.6499836132        3.7381590178
 H          3.8655222484       -2.2982779683        3.8271049914
 O          6.1944252286       -4.5265833503       -0.8796781144
 H          6.5393208927       -4.1540122280       -0.0516385479
 H          5.5991485412       -5.2397582824       -0.6332653446
 O          5.8912644427        5.2389199605        1.0311878296
 H          5.4711147290        4.5371660045        0.4651963737
 H          6.4920010728        5.7234844510        0.4652245227
 O         -0.9005204362        5.7101467601        1.9320524813
 H         -1.1888817844        5.4046112858        2.8028603872
 H         -0.0807315619        5.2192436549        1.7294170021
 O         -7.3795659828       -1.4914470121        2.5807428309
 H         -8.0419379153       -2.1236406167        2.2711409759
 H         -6.6522803244       -1.5642498224        1.9420267611
 O         -0.5509775530       -0.9457663024       -3.9612988614
 H         -0.4145949562       -0.7374966814       -4.9083954285
 H          0.2966573294       -1.2901359020       -3.6373043054
 O         -7.3545480240        4.4516561410        2.4619777814
 H         -6.8784966593        5.2546424400        2.2354026470
 H         -6.8216814883        3.7177411128        2.0676870686
 O         -1.8455077467       -1.2513246073        4.8277719665
 H         -2.3861814184       -1.5719696604        4.0786790341
 H         -2.4949485373       -0.9531685338        5.5030243804
 O          7.0331131074        3.2016172307        2.5052825004
 H          6.6671296730        4.0068716079        2.0993613514
 H          7.7214115847        2.8934841529        1.8913672988
 O          4.6937791390       -0.8307568276       -5.8115293420
 H          5.4530237181       -1.3229911734       -5.4714595242
 H          4.5400602589       -0.1316040608       -5.1345108853
 O         -6.1131689785        2.3064108149        1.5939470252
 H         -6.8460100696        1.6921936428        1.7366293542
 H         -5.7723490225        2.1377749029        0.7021419884
 O          2.3456343371        4.1135887474       -4.4579790885
 H          1.5521635003        4.6380679093       -4.6113331454
 H          2.0100205356        3.1985949456       -4.3363899664
 O         -8.8800376891       -3.3787095947        1.2378202200
 H         -8.6360818158       -3.0611037951        0.3507835018
 H         -9.8048202733       -3.6193096784        1.1920029757
 O          9.4854171001        2.6976194874       -1.7795090216
 H          9.6369916192        1.8201781260       -2.1627549414
 H          8.7433437260        3.0801460903       -2.2843004773
 O          8.5155941242        2.0170033383        0.5458657114
 H          8.9849120354        1.2360845402        0.8863698234
 H          9.0054612522        2.3500262487       -0.2488799651
 O          2.8227345052        7.2062791338       -0.8352193449
 H          2.7327967785        6.2621048040       -1.0982486922
 H          3.1039643582        7.6810112679       -1.6163681567
 O         -2.7084133774        6.4685277017        0.1058446932
 H         -2.1902112722        7.1623916891       -0.3087742216
 H         -2.1172339947        6.0872078982        0.7910115086
 O         -6.0259308949        4.5912882392       -1.0246460883
 H         -5.9390316024        4.9956128831       -0.1518430182
 H         -6.5672567756        3.7833091089       -0.9197050505
 O         -2.5699030579       -5.7778700067       -3.0398359782
 H         -1.7713192639       -6.1804201953       -2.6700080933
 H         -2.2945523787       -4.9871561185       -3.5376413625
 O         -6.0002964644       -4.1334036811       -1.5137610092
 H         -5.4870790644       -3.5909556796       -2.1508584594
 H         -5.3397788306       -4.7669498625       -1.1959090612
 O          4.7032096416       -2.2636754650        1.3439727755
 H          5.4175545506       -2.1024642889        0.6952614243
 H          4.8521312464       -3.1433825896        1.7278726271
 O         -7.6310045119       -0.0340800417        0.1322631121
 H         -8.3802989250        0.0607307515        0.7224887222
 H         -7.7265936675       -0.8833788121       -0.3282788657
 O          2.0672851268       -3.8449354752        5.4777245144
 H          2.9547323610       -3.4806495900        5.3109338604
 H          1.4734967900       -3.0792854607        5.4909541636
 O         -8.3742566825        0.9750635905        2.7169628912
 H         -7.9961413712        0.0655297648        2.7579993575
 H         -8.2219660232        1.3580227159        3.5823766245
 O         -5.7056950970        0.4659393628        3.7870459710
 H         -5.6291775183        0.2661666993        2.8360557682
 H         -5.8121507006       -0.3954162577        4.2155026530
 O          2.7495751092        4.9614385342        4.1483407268
 H          3.0173381073        5.6588906710        3.5402562087
 H          3.4899794874        4.3349684543        4.1957030019
 O         -1.1859225860       -1.6069769155        1.1530879501
 H         -1.6816413513       -0.7599634338        1.1570529080
 H         -0.4057753135       -1.4201988889        0.6022762431
 O         -2.8236888336       -4.2726367435        2.0491133569
 H         -3.5206045812       -4.9555275615        2.0338203396
 H         -2.3396406723       -4.3808840344        2.9052470251
 O          6.4339996447       -1.5303639213       -0.5531097470
 H          7.3803541773       -1.7551714470       -0.5970675789
 H          6.3960685879       -0.5588956283       -0.4908686573
 O          1.3067259225       -4.2075536857        1.6904581307
 H          1.8836021245       -3.7054377262        1.0770375381
 H          1.8302516378       -4.8298500269        2.2318065567
 O          0.6431252970       -1.4166599131        5.8373357687
 H          0.4133547305       -1.4760751898        6.7646589335
 H         -0.1963383727       -1.4734406578        5.3363504223
 O          1.4889485893        1.1988400256        5.5763730909
 H          0.8254521933        1.6264565148        6.1339249793
 H          1.2216278141        0.2611957726        5.5304643157
 O          0.9041936854       -0.5187263759       -0.2111030766
 H          1.0863980304       -0.0889947345        0.6499912981
 H          1.0275260805        0.1942882313       -0.8492948536
 O          1.0094529390        2.2060984298       -0.8375489044
 H          0.4196189298        2.5294899263       -1.5233109019
 H          0.5660053957        2.3494016222        0.0089964032
 O         10.3072238797       -3.5892815415        0.9081212094
 H         11.1700655400       -3.3015496733        1.2059180255
 H         10.0962946261       -3.0760756133        0.1152991844
