  612
      -1033.76739448
 H         -1.3806542998        0.0540129559        0.4767949676
 C         -0.6948907428        0.8451760716        0.1730266735
 H         -1.2441939918        1.5840613360       -0.3993493537
 C          0.3945608378        0.2209580194       -0.6811278904
 H         -0.0193222880       -0.6574338209       -1.1607590159
 H          1.2196336889       -0.0573662632       -0.0354633807
 O         -0.2064007811        1.5036927095        1.3264933276
 H          0.4951573188        0.9425456163        1.7033571189
 N          0.8859283649        1.0841448377       -1.7632120622
 H          0.0605210711        1.5712091503       -2.1970624567
 H          1.3441074216        0.4612445250       -2.4513781904
 H          1.5407033433        1.8263478598       -1.4664044030
 O          2.4987668016        4.8304327818        2.1633340326
 H          1.6658356333        4.3408934239        2.3805819475
 H          2.2179079491        5.7733723990        2.0946828836
 O          0.7495607697        1.2719894700        4.4921605088
 H          0.6456082780        0.3532247006        4.7885567924
 H         -0.1137565498        1.5686684350        4.1637446915
 O          7.8405595711        0.8170029561        3.0803524346
 H          8.7798463737        1.0831746080        3.1354912487
 H          7.5961221940        0.8767943171        2.1293520237
 O         -0.1983714653       -1.4095177516       -5.2666842599
 H          0.5603117180       -2.0117888176       -5.2264634129
 H         -0.9834447959       -1.9642481422       -5.3508894105
 O         -0.2856125414        0.5069858396        7.4567737110
 H          0.6502195294        0.3537052649        7.2912972449
 H         -0.7299326356       -0.3493416449        7.3737446757
 O         -2.7342805257        3.4518000539       -4.8864189927
 H         -3.3909080117        3.7677576035       -5.5397454655
 H         -2.8801133772        3.9588431690       -4.0648758973
 O          5.3940030365       -0.3897923918        7.5811985713
 H          5.8723829086       -0.2722459750        8.4008198455
 H          5.8362135279        0.1844884606        6.9111927683
 O          1.0194407450       -4.7571450647       -0.8378116846
 H          0.0425738168       -4.7808309924       -0.6759629818
 H          1.2819718299       -5.6806077081       -1.0034929194
 O          5.7632071448        2.4706886628        3.2661291040
 H          5.5850547821        2.9381633795        4.0953259316
 H          6.5848550088        1.9565384202        3.3697370048
 O          1.8235158183       -1.0008581065       -3.2124047417
 H          1.2398562000       -1.7762254106       -3.0753962097
 H          2.7429955681       -1.3116601781       -3.1474377332
 O         -0.3608944262        1.4254250633       -5.1064962991
 H         -0.8694793786        1.7093656788       -5.8695808086
 H         -0.2955831924        0.4571960867       -5.1365407647
 O         -1.1598121782        2.3884949906       -2.7552143341
 H         -1.0306949003        2.1282503882       -3.6845748469
 H         -1.9890972033        1.9508625448       -2.4405012269
 O         -0.5792162032       -4.0028306565       -6.7529946700
 H         -0.2281381920       -4.4271984561       -5.9531171063
 H          0.1621551486       -3.5291027739       -7.1812112585
 O         -6.8238811634        3.0326918996       -5.9930934753
 H         -7.6431436629        2.5020235169       -6.0262975430
 H         -6.9988294392        3.6857457572       -5.2939663147
 O          3.2827270491        2.4925800454        6.1007953321
 H          2.5153613850        3.0912507776        6.1448962690
 H          3.3043469364        2.2471836581        5.1398221509
 O         -3.0999121484       -0.0774367050        2.2241556308
 H         -2.2195332474       -0.3342559783        2.5582506631
 H         -3.4253568538       -0.8813063783        1.7778840153
 O         -1.4652378808        5.4567313969        3.4571708659
 H         -1.9020662784        5.3029855441        2.6033581315
 H         -2.1029798709        5.2575410636        4.1589542756
 O          4.8388603178        3.6607623385        1.0838434721
 H          5.1721150361        3.1833565271        1.8700453244
 H          4.9921876905        4.5976920643        1.2724115091
 O         -1.8128677176        2.1649620488        4.1432593261
 H         -1.6496444586        2.5028873943        5.0466435123
 H         -2.1384457584        1.2512499576        4.2630773494
 O         -9.1008970608        3.5232302195        2.9698629891
 H         -8.6085100240        2.9605819644        3.6075308778
 H         -8.8862645790        4.4216152641        3.2368045790
 O         -1.4407159202       -0.4172372618       -3.0229044602
 H         -2.1363714705       -0.0410410219       -3.5883374362
 H         -0.8645662456       -0.9121153106       -3.6212533992
 O          2.6161373139        2.1883073676        0.5880149591
 H          1.7825475351        2.6475055371        0.3779802087
 H          3.3010444725        2.8692360958        0.6895928791
 O         -3.9758348272       -2.0786331822        4.0563232359
 H         -3.2753196055       -1.4193132023        4.2613525466
 H         -4.4591012848       -2.1926286774        4.8888748367
 O          1.8622023552       -3.1175404114        3.4880601689
 H          2.1080546088       -3.5892484263        2.6677665676
 H          2.4187836759       -2.3214805574        3.5235917275
 O          1.2136953293       -6.3961963224        3.0091664917
 H          0.8874617697       -6.2174766349        3.9116940385
 H          0.7474788629       -5.7106189087        2.4671394541
 O         -1.2083207098       -3.4502798083        4.2339150044
 H         -2.0018481367       -3.4717916529        4.7896051999
 H         -1.1573293359       -2.5818200730        3.7858768433
 O          2.2007342130        0.2002345462       -5.5265987540
 H          1.9205367634       -0.3488249072       -4.7665017572
 H          2.9595928507       -0.2562263736       -5.9435968919
 O         -2.2321546839       -2.0694556859       -1.1288923921
 H         -2.4641283082       -2.9336518718       -1.5072042856
 H         -2.0523838157       -1.4486431778       -1.8724654823
 O          0.3628804425       -1.3284457641        5.1401561932
 H          0.6961450943       -1.9533866060        4.4819249615
 H          0.5986612964       -1.7057186969        6.0083888822
 O          3.0374057181        2.1259595267        3.5212923876
 H          2.1293318845        1.8070006290        3.7060935500
 H          2.9578119974        2.8888345002        2.9445787893
 O         -3.5462845009       -4.5622473027        3.0972436853
 H         -4.4294953301       -4.9864892241        3.1286246398
 H         -3.6870992418       -3.6590886771        3.4503177485
 O          7.1985274608       -3.6407259660        4.4957609833
 H          6.6330964230       -3.5975605371        5.2789687850
 H          7.7128550057       -2.8031988651        4.5014231626
 O          5.6522216822       -0.7968363836        4.0640593255
 H          6.1105573808       -1.0333848797        3.2342814192
 H          6.1237465869       -0.0554823396        4.4679010365
 O          3.4899578927        0.2764468219       -1.1198387704
 H          3.7046310526        0.6325405708       -2.0035225294
 H          3.2571293120        1.0367534618       -0.5557722043
 O         10.2909605419       -2.4427236676        2.3790429126
 H          9.6133958147       -3.1131986457        2.2052798169
 H         11.0905886864       -2.7271075127        1.9292958482
 O         -3.2537609607        2.1741119583        0.8523775804
 H         -3.1721011397        1.3238676428        1.3247203034
 H         -3.4391517571        1.9687842911       -0.0779967252
 O         -5.9077509409       -3.7897457469        1.0093281764
 H         -5.0985046423       -3.2452967258        1.0358210702
 H         -6.6414006737       -3.1840850577        0.8022690164
 O         -3.2016123113       -4.1284583841        6.0527950627
 H         -4.1445224295       -4.0552699234        5.8070927950
 H         -2.9879561556       -5.0645838786        5.9882349282
 O          1.5739071469        7.1734434864       -3.6446931918
 H          0.7835329652        7.5172317992       -4.0730990776
 H          2.0271547577        6.6236644096       -4.3098663505
 O          2.5890733569       -6.2048704154       -3.5477314116
 H          2.7922033117       -5.3303569352       -3.1312564777
 H          3.0704912982       -6.1918450990       -4.3838856784
 O         -0.4807489753       -4.7354317061        1.9465777398
 H         -0.2836768043       -3.9978638095        1.3413272348
 H         -0.7990434137       -4.3330106374        2.7699392808
 O         -5.1582329193        2.8794563322       -3.2503763334
 H         -5.9843868671        2.4332091506       -3.0315357647
 H         -5.2749016912        3.8191016799       -3.0330182065
 O          1.1512695645        4.0384210910        5.5086576827
 H          0.9551333084        3.5845325412        4.6664500720
 H          1.1227367826        4.9852572638        5.2893659386
 O          0.4719591180        3.5374669915       -0.3973535589
 H          0.4201910299        3.9271296684       -1.2853849877
 H         -0.3579783632        3.7251254430        0.0533209621
 O         -2.7863681578       -6.0559336742        1.0189631545
 H         -2.0817785247       -6.6183477062        1.4110843561
 H         -3.0721836096       -5.4640273328        1.7378353969
 O         -2.4126954222        4.6585528602       -2.5429642375
 H         -1.7598074733        3.9273820129       -2.5109198340
 H         -1.9063236009        5.4845699698       -2.4305169245
 O          8.8952992213        1.2539982651       -1.2726278383
 H          8.7161968729        2.1873192207       -1.0432632085
 H          8.7848434696        0.7671366414       -0.4358735151
 O         -5.1688021619        3.8993620226        5.1428939350
 H         -4.5015291726        4.4348041446        5.5962092251
 H         -4.6971744517        3.6113268986        4.3241217013
 O         -4.8210223151       -1.6908753796        6.6585081836
 H         -4.1319388627       -1.1075541503        7.0283352931
 H         -4.9313817740       -2.4398968008        7.2425539375
 O         -1.5259787689       -2.0905084422        7.2547349857
 H         -0.7155167076       -2.5328489748        7.5260092432
 H         -2.1193604319       -2.7739615484        6.9162844458
 O         -4.2654219195       -6.3963110725       -3.7205256164
 H         -5.2099173634       -6.5094543585       -3.8359621712
 H         -3.9238808992       -5.9661159128       -4.5394009325
 O          3.4118390398        2.8315724643       -6.9375257318
 H          3.3496935054        2.0787458508       -7.5707006036
 H          4.3546247949        2.8942376140       -6.7382009411
 O          1.3192548331       -2.4246903979        7.3889977071
 H          1.8711477771       -1.6587320422        7.5826886705
 H          1.8963385863       -3.0712350133        6.9255239152
 O          8.1059400508       -4.1508036238        1.9608211387
 H          7.4749313630       -4.8011276256        1.5625019029
 H          7.9485536515       -4.2163433041        2.9150976871
 O         -4.5308103530       -1.7965789641       -5.2284779050
 H         -4.9630076758       -1.0152386795       -5.5976416241
 H         -3.8279575934       -2.0812738097       -5.8368502317
 O          0.2077326559       -5.2958084685       -4.4155310995
 H         -0.4986497103       -5.7659595482       -3.9382346963
 H          1.0396150456       -5.7467768462       -4.1612306267
 O         -4.8680469244        1.2962127616        3.7899158105
 H         -5.4428301698        0.6600409525        4.2416132620
 H         -4.2336026045        0.7766066224        3.2653786398
 O          9.0681538962       -0.4984668957        0.8586629161
 H          8.2101287722       -0.8040703477        1.2348577762
 H          9.7512521065       -0.9201533288        1.4005165516
 O          3.0185010947       -0.8108470596        4.4193453370
 H          3.9631765352       -0.6796699012        4.2362163853
 H          2.8520588304       -0.5315316374        5.3345778814
 O         -7.7744851973       -5.2587108922       -3.0663118116
 H         -7.4228651344       -4.6155716244       -3.7004181700
 H         -7.0824811478       -5.3844916455       -2.3932729108
 O          2.7455971126        3.0947770135       -2.0586036796
 H          2.4340376402        3.1538243364       -2.9752009744
 H          2.5597007511        3.9466717781       -1.6278337635
 O          1.4177631304       -2.4392806746       -7.7293547499
 H          1.9588376127       -2.4053044279       -6.9306806241
 H          1.0808960141       -1.5390844318       -7.8683607847
 O         -0.3448600879        4.4550936939       -5.4068741112
 H          0.0005329179        4.0254532695       -6.2036841931
 H         -1.2366223388        4.0635640263       -5.2664995812
 O          2.3048040240       -2.1455346876       -0.6366651245
 H          2.8110694819       -2.2857734762        0.1849596128
 H          2.6400258416       -1.3049540803       -0.9910058678
 O          5.2203181950       -3.1362455182       -5.4594141220
 H          4.8941781525       -2.6723396410       -4.6524448563
 H          6.1735403162       -3.0022078818       -5.4743862659
 O         -8.2646389475        0.4059819470       -0.3738848302
 H         -9.1635472475        0.7658251667       -0.3651576656
 H         -7.9497944305        0.5260835888        0.5507813076
 O          3.7519518141       -6.9563313432        0.9784663663
 H          4.6778058894       -6.6372190682        0.9644135260
 H          3.6180914279       -7.3832740306        1.8263158086
 O          3.6897657755       -1.9192366769        1.6284981659
 H          4.2109892563       -2.6183595744        2.0591316966
 H          4.1756779854       -1.0776302451        1.7139690807
 O          5.0729341139       -3.8989343953        2.8164404571
 H          4.4971423340       -4.5865706162        3.2279381500
 H          5.8063823219       -3.7464139523        3.4403195577
 O          5.5676110716       -1.2219761695       -0.4694777528
 H          4.7336274682       -0.7077362666       -0.5109628234
 H          6.1330867981       -0.7565782336       -1.1138799209
 O          6.8667250529       -1.6384628819        1.7812902105
 H          6.3126466641       -1.4970577817        0.9782533218
 H          7.1525900548       -2.5655065617        1.7898276838
 O         -3.1023931232       -5.0734493408       -5.7189112845
 H         -2.3468204029       -5.4173423246       -6.1978910227
 H         -2.7599333070       -4.3015643940       -5.2156419250
 O         -4.3194874596       -0.8701895042       -2.6768763043
 H         -4.8152980106       -1.6126190053       -2.2610831403
 H         -4.1845823527       -1.1572594948       -3.5965543674
 O          6.5137736501        0.4985376496       -2.3089239997
 H          5.9517306096        1.2345769366       -2.0006605376
 H          7.4096485560        0.7422924281       -2.0163491169
 O          7.4384957306        5.0261660253        3.8730886620
 H          6.8364584013        4.5843024205        4.4930637770
 H          7.9629555762        5.6411616587        4.3864675029
 O         -9.0475934836       -3.9263377395        2.2238508930
 H         -8.7628890315       -4.6242591563        1.6095782141
 H         -9.5176986605       -3.2667904451        1.6910746045
 O          6.8606064377        1.2575191797        0.6403768833
 H          5.9586332372        0.9697716472        0.8905409185
 H          6.8195881503        2.2053226863        0.5051399308
 O          8.6747036152       -1.4150043018        4.3451874267
 H          9.4258818546       -1.7090876055        3.8129498990
 H          8.2381625915       -0.7083429034        3.8209562162
 O          0.4798214083        4.8013051634       -2.7794969683
 H          0.8613642473        5.6857508283       -2.8882896295
 H          0.2349898017        4.5060575075       -3.6688393897
 O         -2.3741069820        2.7994426465       -7.8247281462
 H         -2.3639751012        1.8326073558       -7.7553312593
 H         -1.4677869731        3.0721846666       -7.9943182398
 O         -5.2870268318        1.8855846768        6.9766232165
 H         -5.9708044425        1.2905732652        6.6558614916
 H         -5.1943963158        2.5885187381        6.3052210010
 O         -1.6344523278       -6.5375514138       -2.8251541278
 H         -2.5420734333       -6.7265666416       -3.0926417426
 H         -1.3816785456       -7.1754577135       -2.1318107684
 O         -5.1671147046       -0.1729476468        0.0002812081
 H         -5.2918109943        0.7837529263       -0.1365327007
 H         -4.4044738236       -0.4459538204       -0.5105196839
 O          2.4940526910        5.3362303612       -0.5175069462
 H          1.5730927017        5.6443231229       -0.4335409778
 H          2.7352671550        5.0223924849        0.3710530776
 O          2.1364866466       -3.0879085025       -5.1161915139
 H          2.3332466380       -3.9365985830       -5.5333615611
 H          2.5839723272       -3.1445942215       -4.2562713179
 O         -5.6783322037        2.5155223211       -0.3560188687
 H         -6.4605420197        2.5748147590       -0.9222338429
 H         -5.9592939303        2.6971489972        0.5611597748
 O          3.6439397196       -5.2742024842       -5.9546542461
 H          4.3042612866       -4.5764480050       -5.7649452402
 H          3.7377826445       -5.5013662418       -6.8788388847
 O          5.4083000141        3.9626524941        5.5244630796
 H          4.7129879147        3.4051638812        5.9436219621
 H          4.8822570437        4.6952592079        5.1430891645
 O          3.7901738411        5.7091844097        4.2717038448
 H          3.1212211051        6.2369457944        4.7141660977
 H          3.3077995615        5.2239204725        3.5550149407
 O          4.3512067669       -0.8719961992       -6.6355984777
 H          4.5423956642       -1.8064213148       -6.4397517517
 H          5.0137588684       -0.3742290368       -6.1207277997
 O         -6.2860544627        2.9085038168        2.2018886305
 H         -5.6765047280        2.4250112814        2.8059337947
 H         -6.5604822154        3.7375654339        2.6365322236
 O         -0.7981892070       -7.9987404850       -0.6922892820
 H         -0.9471371988       -8.0196499260        0.2606453314
 H          0.1562933741       -7.8787982828       -0.8071470406
 O          9.4825633047        3.6938134994        2.4061064753
 H          8.7339682707        4.0794817213        2.8795510435
 H          9.2303425481        3.6704555238        1.4659002812
 O          4.5059188028        0.5950057891        1.7336690207
 H          4.7187516656        1.0635911737        2.5567490052
 H          3.6769246116        1.0043802729        1.4384301498
 O          1.6171368779       -0.2914490948        2.2517234585
 H          2.0479342610       -0.1587549406        3.1163157028
 H          2.1554959229       -0.9785628148        1.8313729682
 O          6.6443695942        1.1880952406        5.8133596850
 H          6.4474632227        2.1190387130        5.9425644560
 H          7.6282765065        1.0937713509        5.8375875217
 O          3.6722825448       -5.8425126921        3.8981921531
 H          3.4569050388       -5.4827524194        4.7694959510
 H          2.8077080408       -6.0571739571        3.4837038635
 O          9.3718653114        0.1531902556       -3.9395580479
 H          9.2218648979        0.4115775007       -3.0207015900
 H          9.1048054706        0.9297442421       -4.4603127772
 O         -1.1399890724        6.9816295342       -4.7382360329
 H         -0.7832684795        6.1256214935       -5.0453943772
 H         -2.1021506177        6.8922984275       -4.8455490145
 O          1.8916981708       -7.2883687524       -1.1002991553
 H          2.6139769173       -7.2839020749       -0.4537140135
 H          2.2729306799       -7.1694717698       -1.9833030475
 O         -3.2007555548        0.3459802209        7.3162707981
 H         -2.5930886186        0.6584512339        7.9861362159
 H         -3.9325551306        1.0044924054        7.2283872520
 O         -9.4169093326       -3.9439085195       -1.4360308424
 H         -8.8806814995       -4.4293380760       -2.1109727753
 H         -9.6154715241       -4.6030711987       -0.7642084912
 O          0.6001069231        0.2266459297       -7.6398682728
 H         -0.3459123131        0.0898245958       -7.4390691281
 H          1.0875334663        0.2206482724       -6.7783165714
 O         -2.0612917545        0.1461124524       -7.0720588040
 H         -2.3189904057       -0.7651773830       -7.2762386215
 H         -2.4637730043        0.3378830934       -6.1882665625
 O         -3.6524069181        3.6513829199        2.9841829958
 H         -3.7805663625        3.1376411087        2.1641190318
 H         -2.9400029180        3.1486307793        3.4430826254
 O          0.2580020592       -3.1315466265       -2.8808246715
 H          0.3844439825       -3.8343047496       -3.5546096799
 H          0.4859499828       -3.5757431149       -2.0450973112
 O         -3.1173303219        0.8513165775       -4.7533030552
 H         -4.0862073495        0.7645024353       -4.8750287933
 H         -2.9679596663        1.8224718718       -4.7399767412
 O         -1.3625193239        7.0921041582       -2.0907018712
 H         -2.2646312539        7.3968468595       -1.8871904290
 H         -1.2141187401        7.2118407914       -3.0537286557
 O         11.3645155228       -1.1741092389       -2.4701140475
 H         11.5744394405       -0.3057859136       -2.0424554134
 H         11.0917251991       -0.9496424922       -3.3655941799
 O         11.6027938639        1.1148940358       -1.1638484635
 H         11.7554326642        0.8282660327       -0.2495793800
 H         10.6452586966        1.2919742581       -1.2275824165
 O         -1.5470058349       -4.6739277489       -0.8725078945
 H         -1.6843665967       -5.2191163979       -1.6652498886
 H         -1.9982236915       -5.1427226462       -0.1456285815
 O          7.8332861047       -1.9403814347       -4.8915397750
 H          7.4877068667       -2.2922044673       -4.0438689840
 H          8.5643354654       -1.3524293652       -4.6389694122
 O         -3.4220804370        1.5108319605       -1.8090245905
 H         -3.6004540155        0.6104575531       -2.1298949224
 H         -4.0529334593        2.0821933751       -2.3051793046
 O         -5.8396065770       -3.9915209727        5.2606091948
 H         -5.9453459534       -4.7370815477        4.6509851235
 H         -6.5151556511       -3.3606312573        4.9523808227
 O         -3.5434741002       -2.4793672766        1.0977801220
 H         -3.1007252039       -2.3386048851        0.2360883840
 H         -3.0571452289       -3.1684113693        1.5605578384
 O         -9.7457002251       -0.5014519427        3.3128898761
 H         -8.9921048196        0.0048103513        2.9377954183
 H         -9.3406355714       -1.2497715496        3.7692372337
 O          0.5903072545        2.9628234845       -7.5625984454
 H          1.5270600689        3.1838537749       -7.5826639489
 H          0.5705416351        1.9934738235       -7.6983396385
 O          7.5133412915        3.6494724446       -2.7498298066
 H          6.7099910737        3.2791354290       -2.3230440732
 H          7.2820942305        4.5633674015       -2.9373710066
 O          2.7240306347        0.0423208694        7.0138432615
 H          2.8073872274        0.9841080956        6.7432796775
 H          3.6082179616       -0.1759381290        7.3485256377
 O          9.5738254305       -4.2134957945       -0.4048658775
 H          9.1410435325       -4.2534684615        0.4584067959
 H          9.2986386333       -3.3533886013       -0.8119448040
 O         -3.9454067966        7.3336442424       -1.2857454956
 H         -4.4832354574        7.3824226254       -2.0792674541
 H         -4.0657532750        6.4207770749       -0.9523982598
 O         -4.7307354900        5.9279831490        1.9619413127
 H         -4.0023933905        6.5386136579        1.7557153140
 H         -4.3084580966        5.1146770769        2.2939003329
 O          0.8912533790        6.5350156874        4.4339548467
 H         -0.0110797898        6.3035169895        4.1631592003
 H          1.2458925821        7.0096633603        3.6660488864
 O         -8.9358481127        1.4512700263       -5.3790149984
 H         -8.6593777597        0.5226992107       -5.3160145732
 H         -9.4191885370        1.6065237907       -4.5583895755
 O          4.6771428494        3.8527615853       -4.0756688227
 H          5.2647002050        3.5117067754       -4.7822557756
 H          3.9872638853        4.3764526450       -4.5166941100
 O         -6.5677121853        5.7702775565       -0.0126297302
 H         -5.8184310407        5.6948497891        0.6239580933
 H         -6.9085080899        6.6580958425        0.0938372754
 O          5.5367330753        6.1494817316        2.1635242439
 H          6.3320219717        5.8076272809        2.6034706062
 H          4.8774485785        6.1993429793        2.8763656140
 O         -6.6319472936       -0.2523574683        5.2803497314
 H         -7.1685205891       -0.9288134063        4.8408060425
 H         -6.0240085637       -0.7566020270        5.8523268762
 O          9.2659276769        0.7980189855        5.8180209579
 H          9.8037379949        1.2129234128        5.1312882241
 H          9.1914406043       -0.1319318415        5.5382199945
 O         10.4490857100        1.3617402162        3.2506897800
 H         10.2968408976        2.2767287408        2.9355210532
 H         10.9451146698        0.8997799378        2.5627140224
 O          5.7846421232        5.9161925948       -2.7436369138
 H          5.0771975583        6.5475850332       -2.5105371016
 H          5.3308559218        5.1617274176       -3.1760055383
 O          4.0026157655        1.1526835479       -3.6357133870
 H          3.2889967065        1.0198979417       -4.2811257061
 H          4.2584962106        2.0848258963       -3.7079065311
 O          8.6287592815        2.6311135519       -4.9101697081
 H          9.4249680476        3.1466223442       -5.0320461644
 H          8.2044327584        2.9565340674       -4.0759999817
 O         11.9875862419       -0.1605628703        1.2743852743
 H         12.8880994886       -0.1141732714        1.5961916258
 H         11.9006375519       -1.0280042390        0.8301118362
 O         -5.7034555627        0.6933488594       -5.2584374518
 H         -6.1515500162        0.6119684392       -4.4067708289
 H         -5.9877857608        1.5578219841       -5.6120444831
 O          1.9054246096        2.8402207262       -4.6784993249
 H          2.4526606426        2.6337516715       -5.4609916768
 H          1.0780452359        2.3436905541       -4.8026093608
 O          3.2156196458        0.7430507440       -8.5693983935
 H          2.2926491452        0.4644978535       -8.5820702719
 H          3.7022059762        0.0606039031       -8.0818587836
 O         -7.6956489130        0.7018532386        2.1695756595
 H         -6.9821521899        0.0522317822        2.3303767997
 H         -7.2946310665        1.5920084193        2.2412716495
 O         -4.4479378240        4.3105443633       -6.7240599910
 H         -3.8961512665        3.8619085847       -7.3828409527
 H         -5.2869289311        3.8292175472       -6.6650224908
 O          6.2337660771        0.1887213753       -4.9922306775
 H          6.3054535187        0.4003607050       -4.0378299139
 H          6.8662315243       -0.5470968372       -5.1301520384
 O          8.7602410666        3.7353361748       -0.2212256240
 H          7.9355992726        4.2779200249       -0.2879989168
 H          9.4193776771        4.1987585741       -0.7378814259
 O        -12.1629913173       -0.3141006335       -0.6170392509
 H        -13.0735214100       -0.2097858462       -0.3419604808
 H        -11.7103637826        0.5214320501       -0.4231530334
 O          5.3228197628        2.7652408649       -1.4325330960
 H          5.2836124711        3.1813988621       -0.5534736854
 H          4.4304939437        2.9124722908       -1.8089338970
 O         -4.5069716043       -7.6257741872       -0.1327183162
 H         -3.8511311989       -7.0324506445        0.3219520681
 H         -3.9924944691       -8.2640426732       -0.6261992710
 O          6.0865138856        2.6571075694       -5.9968590887
 H          6.0608946609        1.7215928972       -5.7010891775
 H          7.0261327853        2.8737879239       -5.9389330524
 O          3.1621881632       -3.8087818694       -2.6147292932
 H          3.9852111650       -3.9234260988       -2.1032923209
 H          2.5736792494       -3.3869658654       -1.9608887161
 O         -0.8115419336       -1.3302729760        2.6458150048
 H          0.0265945097       -0.8422180934        2.7336463374
 H         -0.6742902601       -1.8292771401        1.8140645835
 O          6.7702565845       -2.7328190594       -2.5590881081
 H          6.7600206625       -3.6606394836       -2.2739704259
 H          7.5044704535       -2.3195364347       -2.0696288815
 O         -2.1430552024       -6.5028107552        4.4654166198
 H         -2.5348600997       -5.7502111633        3.9827559601
 H         -1.3123902675       -6.1930582842        4.8451272643
 O         -7.9039235372        4.6282701315       -4.0023684073
 H         -7.9427769242        3.9510304466       -3.2802755965
 H         -8.7953774372        4.7518343613       -4.3255903015
 O         -0.1457483585       -2.5600806064        0.4375822874
 H          0.7153761692       -2.4614096050       -0.0058134219
 H         -0.8552169913       -2.5061997853       -0.2358732619
 O         -6.8867334022        5.2517418242        3.4586179403
 H         -6.2188877301        5.7562573850        2.9668833794
 H         -6.4418275375        4.9619791230        4.2709636833
 O         -6.7052521594        0.4071872202       -2.6271387310
 H         -5.8411634368       -0.0308906268       -2.4882422480
 H         -7.1729793523        0.3841633709       -1.7717466225
 O         -6.0187889109       -5.5110667545       -1.0149961329
 H         -5.4743004928       -6.2837936534       -0.8055857060
 H         -5.8434502336       -4.8364015706       -0.3218738928
 O         -6.6015922520       -7.8272639594        1.5920286395
 H         -6.6291954437       -8.7103845878        1.9579600791
 H         -5.8705589340       -7.8090228059        0.9425943528
 O         -7.7784975735       -2.2510749934       -0.1209773897
 H         -8.5034240746       -2.8116616540       -0.4543597925
 H         -8.0906248537       -1.3285359252       -0.1573272796
 O          5.1341408342       -2.6202312876        5.9789841647
 H          5.2580590995       -2.0332671612        5.2023891685
 H          5.2112624616       -2.0232376101        6.7358496173
 O          4.8282447015       -3.8362638955       -0.5529911325
 H          5.1168178147       -2.9058236330       -0.5242386458
 H          4.1007829676       -3.9275822505        0.0903310363
 O         -7.6709556498       -2.4163101496        3.8945057729
 H         -7.0557293451       -2.0788761772        3.2139323306
 H         -8.2051736319       -3.0806783984        3.4037780338
 O          9.0027317700       -1.8439350361       -1.3868562734
 H          9.0194757318       -1.2927193926       -0.5691813952
 H          9.8234911915       -1.6207184955       -1.8754774728
 O         -7.8780949245        2.8893014172       -2.0273241531
 H         -8.4879084251        2.1712833132       -2.2938571064
 H         -8.2433660835        3.2703289057       -1.2059259193
 O         -8.2916199072       -1.0117242246       -4.2704851431
 H         -7.7370291511       -0.5116662350       -3.6304601557
 H         -9.0748109387       -1.2868202334       -3.7757562197
 O         -6.0152435998       -5.5384855687        3.0119837562
 H         -6.1874567945       -4.8781377128        2.3068913760
 H         -6.2672668589       -6.3937126128        2.6335708211
 O          6.6376664368        5.2556296497       -0.3342631957
 H          6.3166864873        5.5349505031       -1.2240930433
 H          6.4087923081        5.9417427798        0.2936532092
 O         -1.0711859371        2.9661687857        6.5856468443
 H         -0.8394156387        2.0917844720        6.9547321516
 H         -0.2170556016        3.3677877605        6.3215737770
 O         -1.8151069616        4.4161780884        0.9002905222
 H         -2.6192146205        4.7031393255        0.4096190375
 H         -2.0389289783        3.4880022379        1.1038447710
 O          6.0919708121       -5.5735323846        1.0240232295
 H          5.6170399666       -4.9790951605        1.6556315559
 H          5.9571443911       -5.1582895340        0.1499433469
 O         -3.8313830786        6.3024500905       -4.7342624491
 H         -4.1093860968        5.8131264252       -5.5186591609
 H         -4.3818733534        5.9866314447       -4.0067162032
 O         -2.1976682154       -3.0580114035       -4.1655649945
 H         -2.9015199406       -3.3222322534       -3.5374106908
 H         -1.3792810236       -3.1279722403       -3.6487191029
 O         -9.9076719335        1.2770450323       -2.7207071600
 H        -10.5029799317        1.5880214189       -2.0307755283
 H         -9.8811173148        0.3092574763       -2.6240498591
 O         -5.9407756488       -2.7186728098       -1.8888553397
 H         -6.6355933181       -2.5140382432       -1.2198560198
 H         -6.3705463385       -2.9243852145       -2.7428098336
 O         -5.8642769003       -1.1891190620        2.3634720632
 H         -5.0925307843       -1.4808325345        2.8873598139
 H         -5.5613766449       -0.9702851493        1.4612506623
 O         -5.7091280905        5.5214904114       -2.6855558656
 H         -5.9800904557        5.5164233854       -1.7489923882
 H         -6.5201293596        5.4614398784       -3.2104115647
 O        -10.2951415626       -1.7817242843        0.9569285524
 H        -11.0536925685       -1.4274092667        0.4822786953
 H        -10.2168811933       -1.2799549252        1.7885402196
 O         -2.7234386521       -2.4992828390       -7.1721624630
 H         -1.9352198206       -3.0606256779       -6.9739312005
 H         -3.2644814247       -3.0195976075       -7.7655824248
 O         -3.7515047695       -4.1077597920       -2.3073249340
 H         -4.5965310182       -3.7190905422       -2.0197984736
 H         -3.9683585318       -4.9816428658       -2.6681588752
 O        -10.5934731202        1.9061446919       -0.0555190031
 H        -10.0997885809        2.7362060031       -0.0577397659
 H        -10.8523507645        1.7991718444        0.9006662857
 O         -6.7007288380       -3.1524136989       -4.4106332149
 H         -5.8626416423       -2.8276312670       -4.7898834265
 H         -7.3458471833       -2.4265856150       -4.5313250830
 O        -11.1585593474        1.7327895195        2.4858259247
 H        -10.8465222491        0.9192297960        2.9088106801
 H        -10.5641921793        2.4352695578        2.7954232682
 O        -10.2117125522       -1.4534070634       -2.3256706036
 H        -11.0239888992       -1.2442717060       -1.8491852898
 H         -9.9574308580       -2.3391831704       -2.0134844091
 O         -4.0141918636        4.7053207957       -0.5224487899
 H         -3.5004819495        4.5762513158       -1.3544967105
 H         -4.5835001180        3.9176949328       -0.4341935090
 O          2.6451703740        5.2910729540       -5.2902673043
 H          2.1047846727        4.5027533120       -5.0482961058
 H          2.7567852543        5.2564214489       -6.2406197158
 O         -8.6111987101        3.9191959020        0.3238736758
 H         -8.7158788193        3.6806449075        1.2665282507
 H         -7.9100374498        4.5924667618        0.2975931340
 O         -2.1723601275       -0.3554495864        4.9360400060
 H         -2.4984998675       -0.1551458698        5.8332945941
 H         -1.2924028532       -0.7630809233        5.0463840032
 O         -2.7613991908        4.9813121733        5.9109031607
 H         -2.2318822399        4.2301399677        6.2408765607
 H         -2.5347530973        5.7339287011        6.4563993265
 O          2.6796205060       -4.4146108531        1.1797788417
 H          1.9875287912       -4.4338648665        0.4820477738
 H          2.9639721759       -5.3377067161        1.2673685886
 O          1.7553525499        7.3512535041        1.9570032736
 H          1.0806338344        7.2545030544        1.2670274565
 H          2.5317597341        7.7951632361        1.5444579117
 O          3.9859201039        8.1731545509        0.7895102332
 H          3.9484476419        8.0213865568       -0.1715785000
 H          4.6490017896        7.5716966299        1.1482457630
 O          7.3170459961       -5.2228506561       -1.5977236379
 H          7.3503901179       -6.1047997611       -1.9634400859
 H          8.2013502581       -5.0276108600       -1.2313479987
 O         -2.6036086496        7.4472798547        1.1778001624
 H         -1.6676914997        7.2865844248        1.0118711926
 H         -2.9899526168        7.7349246320        0.3429551533
 O         -1.0854952015       -7.7167912629        2.2303808961
 H         -0.1736984437       -7.4104297418        2.3856843823
 H         -1.5446435955       -7.5390463701        3.0741447791
 O          2.8065171362       -3.9828621360        5.7992818023
 H          3.6730322420       -3.5391817868        5.8958882532
 H          2.4479817269       -3.6717414262        4.9284221025
 O          0.3752991291        3.5796590864        2.9263281865
 H         -0.3502163091        4.2119217008        3.0939866519
 H          0.0409710502        2.9008269902        2.3174007095
 O          0.3113243212       -5.3437873856        5.3438763026
 H          1.0908750206       -5.0589825239        5.8280985266
 H         -0.0954945066       -4.5343991282        4.9709471931
 O         -7.6395719638        2.3108911406        4.8283960222
 H         -6.8328649869        2.8125743328        4.9882370306
 H         -7.4268668417        1.3751410857        4.9443054034
 O         -8.3431245654       -5.8779526491        0.4114391260
 H         -8.0796031310       -6.6512287437        0.9208491978
 H         -7.5932482623       -5.7138721344       -0.1925122922
 O          4.4730529700       -1.5693285541       -3.4028592103
 H          5.2130823902       -1.8847440149       -2.8576499378
 H          4.6468295535       -0.6361725655       -3.6001547826
 O          3.6720338049        7.3071627880       -1.8084097956
 H          3.0046970274        7.5639277180       -2.4585991951
 H          3.2791803653        6.5274959436       -1.3532552562
 O         11.8029445824       -2.5697338346       -0.0596037492
 H         11.9250423904       -2.2089676547       -0.9485046127
 H         11.1715107546       -3.3019587564       -0.1838525893
 O         -0.0220271411        6.4067855349        0.1092595886
 H         -0.5596979314        5.6586575825        0.4161666615
 H         -0.4013368404        6.6900430500       -0.7443870269
