  99
       -167.94362042
 O         -2.3871590078        2.9938208667        2.2714882013
 H         -1.9323481090        2.9100469908        1.4213410119
 H         -1.8798882537        2.4882390712        2.9169322316
 O          2.8423139525       -2.1188550812       -2.0427635524
 H          2.5188506032       -2.9920129788       -1.7501868580
 H          2.2216546976       -1.8359643308       -2.7469226371
 O          4.9144944547       -0.4862084015       -2.6158753851
 H          4.2235519987       -1.1588434301       -2.4608903829
 H          5.4780988093       -0.8153931299       -3.3173011297
 O         -4.5224101080        1.3508141176       -0.6830665171
 H         -4.7102790144        1.9104260808        0.1238941614
 H         -4.4017238179        1.9564141650       -1.4285377376
 O         -0.7695591440        1.0645010135        3.5921731211
 H         -0.3727371856        1.1129832636        2.7018842888
 H         -0.0778841412        0.6804568282        4.1453007167
 O         -2.7395409081       -0.4363113867        2.5801103879
 H         -2.1260134367        0.1181705106        3.1054453906
 H         -3.6517774166       -0.1879350823        2.8027217580
 O          3.4454057024       -0.0089224971        2.2769640004
 H          4.0095104465       -0.8068980437        2.2398481301
 H          4.0144358198        0.7348262922        1.9988541288
 O         -1.6876381992        3.2939095180       -0.4596508150
 H         -1.4069601024        4.2026642287       -0.3396786218
 H         -2.5215146036        3.3320674352       -0.9537151008
 O          5.9466599409       -0.3975569634       -0.0712903803
 H          5.6557468434       -0.3777089375       -0.9988195603
 H          5.7261113905        0.4692895667        0.3059248104
 O          0.8112103247       -1.9959292481        2.3001355124
 H         -0.0588685319       -2.4065606480        2.3586736766
 H          0.9299790428       -1.4457389660        3.0887774898
 O          1.6084569832       -0.2406742967        4.2906308966
 H          2.0662842169       -0.4848619704        5.0957495476
 H          2.2916034487       -0.0211546505        3.6277282815
 O         -4.9456025797        2.5800919917        1.5626765187
 H         -4.0680695066        2.8574433515        1.8961131858
 H         -5.2281659399        1.8610181630        2.1442274213
 O         -5.8878173533       -0.7802073584        0.1214765426
 H         -5.4368518462       -0.0000425731       -0.2780115321
 H         -6.7888701041       -0.7718578620       -0.2036170925
 O          1.3929079626        1.4475932250       -3.8773763651
 H          0.4991470835        1.6962285797       -3.5963624766
 H          1.3690039629        0.4929497986       -4.0375780052
 O          1.0680910297       -1.3426931589       -3.9121451816
 H          0.1989441288       -1.2493550565       -3.4363844901
 H          0.8972942159       -1.8523657284       -4.7044024598
 O          3.7751052196        2.0822643424       -2.7509316588
 H          4.2493369403        1.2396253807       -2.8025776245
 H          2.9442700901        1.9660391156       -3.2504837937
 O          3.6818069039        3.4099222991       -0.4771398394
 H          3.9799172539        4.3049338460       -0.6445942912
 H          3.7113126172        2.9504576898       -1.3520523351
 O          2.6821884203       -3.7190165470        1.4119301552
 H          2.0214373029       -3.1405939982        1.8414975206
 H          3.5207366096       -3.2334305620        1.4328531282
 O         -2.2894441688        0.0554596175       -0.0165591274
 H         -2.4488732934       -0.0865465272        0.9420713997
 H         -3.0364070538        0.6125919343       -0.3224731574
 O         -3.0697958794       -2.8088062073       -2.9741847347
 H         -3.3315669136       -2.7886215459       -2.0283909310
 H         -3.8661465277       -2.9490353793       -3.4857234437
 O          5.0300693555        1.8990083767        1.2008813609
 H          4.5146663361        2.4783111277        0.5820000699
 H          5.6339000121        2.4705225451        1.6765695865
 O         -0.2041338853       -2.1358388484       -0.3313076686
 H         -0.8101470942       -2.3823466623        0.3983423664
 H          0.2754510378       -2.9437709383       -0.5802035634
 O         -1.1378238696       -1.0153731490       -2.5457353172
 H         -0.8855668462       -1.3609144515       -1.6582473840
 H         -1.8575370210       -1.6028666841       -2.8463826554
 O         -3.5989556656       -2.2997481070       -0.3879640575
 H         -3.0390293239       -1.4916217007       -0.3626339989
 H         -4.4930158031       -1.9881160991       -0.1881000971
 O         -5.4334222078        0.0442502466        2.6919507231
 H         -6.0612988798       -0.3186502364        3.3174200058
 H         -5.6407981212       -0.3384125562        1.8144567278
 O         -1.1624933610        1.6748570167       -2.7127764322
 H         -1.0826716312        2.0393395484       -1.8195183306
 H         -1.2790290362        0.7076969507       -2.6145850571
 O         -1.8526761327       -2.8223199374        1.6950732662
 H         -2.5600286808       -3.0729235587        1.0826126691
 H         -2.1878475914       -2.0197772347        2.1390161057
 O          1.5607410010       -4.1752576446       -0.8853271727
 H          1.4365318093       -5.1127727566       -1.0323834328
 H          2.0139594023       -4.0846437006       -0.0000597464
 O         -3.5052155050        3.0127836674       -2.6074960041
 H         -2.7112976694        2.5062158648       -2.8859742745
 H         -3.7899787095        3.5304559689       -3.3606603366
 O          4.9548068762       -2.1285598589        1.6136802662
 H          5.3703321804       -1.5676870837        0.9051639582
 H          5.6760778041       -2.5764868706        2.0568626004
 O          0.1534798383        0.9930214357        1.0844179207
 H          0.9778891145        0.5723311129        0.7754599110
 H         -0.5424844990        0.5901975816        0.5448734238
 O          1.0951093806        3.6137077276        0.8102563290
 H          0.7150991146        2.7286773261        0.9352447326
 H          1.9663800027        3.4454892320        0.4328998917
 O          2.1729331386        0.2503472059       -0.5960176968
 H          2.1207618888        0.7086298812       -1.4366255696
 H          2.3275412228       -0.6835674656       -0.7892721715
