  99
       -167.94499102
 O          5.0053655559       -1.1552160468        1.2457593173
 H          5.0977233370       -0.1860173301        1.1859444555
 H          4.8591673534       -1.4916351988        0.3534462182
 O          0.0103460382       -2.7176198213       -3.9066592533
 H         -0.3464686093       -3.6014140397       -4.0014811479
 H         -0.1365884586       -2.4437759351       -2.9641351253
 O          4.8956169065        1.5822569745        1.3944744827
 H          4.6852325239        2.0490985731        0.5384019179
 H          5.6659554983        2.0286635007        1.7490761140
 O         -1.2054067901        3.5889560782        1.8453150076
 H         -0.6807184019        3.1268077707        2.5177046185
 H         -2.0793588263        3.1866029341        1.8138784018
 O         -2.2879795267        0.0303308468        1.0368254775
 H         -1.8348363020        0.0869201964        1.9062460913
 H         -2.8264111406        0.8548395174        0.9735476812
 O         -4.3295027777       -1.1753879735       -1.0309281797
 H         -4.9467394616       -1.7279810628       -1.5119287362
 H         -4.8625919238       -0.5303959161       -0.5235632943
 O         -1.2979890273        0.2251057942        3.5038420086
 H         -2.1596287178        0.5893829850        3.8087945892
 H         -0.6397058033        0.9219938724        3.6776280054
 O         -3.7167968535        2.2494047859        0.9537241781
 H         -3.3594139109        2.5609226444        0.0778938261
 H         -4.5987730940        1.9032636135        0.7568223487
 O          4.0927546890       -1.7748084029       -1.4225681777
 H          3.7320036101       -2.2173274620       -2.2198749542
 H          4.4806833520       -0.9467679825       -1.7698978566
 O          2.7674443915       -2.2949128696       -3.6743784464
 H          2.8200944622       -1.4042714517       -4.0490558195
 H          1.8517081011       -2.5773990357       -3.8167089551
 O          2.8218827602        1.2820229277        3.2033815746
 H          3.5517243049        1.5427979583        2.6177112205
 H          2.9731713625        0.3494185917        3.4172756404
 O          4.4092951861        2.6794891903       -0.9125621072
 H          4.6507505616        1.9933239684       -1.5531848243
 H          3.5254954759        2.9922753970       -1.1785704675
 O         -2.2359053880        0.0935511874       -2.2077071814
 H         -2.2770277193       -0.0310106214       -3.1642875052
 H         -3.0200885027       -0.3322746277       -1.8127787595
 O          1.8896578505        3.1791179727       -1.8226740930
 H          1.1790958288        3.6118965934       -1.3227851525
 H          1.4327088154        2.6292645789       -2.4690262291
 O         -1.1729595128       -2.3721516323        2.6461066462
 H         -1.2317712035       -1.5211855857        3.1124697230
 H         -0.2269007212       -2.5381340163        2.5218818739
 O          1.5456078426       -2.6224330007        2.0744049775
 H          1.8210097782       -3.5340029961        1.9632787032
 H          2.1909313418       -2.2026621175        2.6887273005
 O         -3.7488043866        1.2360335872        3.7121652705
 H         -4.2217476449        0.4260281456        3.4556784370
 H         -3.8721887219        1.8557626256        2.9841460467
 O          4.8516746203        0.5324892470       -2.6333729815
 H          5.6531074937        0.5253338379       -3.1588072710
 H          4.0942232936        0.5531835624       -3.2608347018
 O          0.4175379514        2.3048568081        3.7191812740
 H          0.5101906490        2.8196474895        4.5226494456
 H          1.3167959808        1.9821812476        3.4918364550
 O         -2.5962710260        2.7333729127       -1.3621243093
 H         -2.3581215600        1.8497920642       -1.6856260286
 H         -1.7593380382        3.2096036048       -1.2213955352
 O         -2.1888525192       -2.7661471906        0.1107077122
 H         -2.9224753163       -2.1667167236       -0.0898893628
 H         -1.8894629510       -2.5542697000        1.0151868847
 O         -0.3729007170        4.1999777169       -0.6027856074
 H         -0.6067283060        3.9941543696        0.3311667757
 H         -0.5264194358        5.1390100790       -0.7153205266
 O         -0.4162850210       -1.7516145467       -1.5045005440
 H         -0.9548990652       -0.9599955048       -1.7330737833
 H         -1.0097182332       -2.2570752369       -0.8865918711
 O          3.5089011586       -1.4277878138        3.3824536811
 H          4.1227064161       -1.3716683178        2.6046237813
 H          4.0285637271       -1.7506885310        4.1197102690
 O         -4.4858594351       -1.0077985415        2.3017295216
 H         -4.4101143567       -1.9402287589        2.5810815321
 H         -3.6648435430       -0.8227187870        1.8022238681
 O         -5.8444586069        0.4350205238        0.5650768350
 H         -5.5147097329       -0.1129922027        1.3157413821
 H         -6.7977557603        0.4780591006        0.6449697442
 O         -3.6905124407       -3.5263589029        2.8120500795
 H         -3.6980428045       -4.2087376211        2.1385082435
 H         -2.7608503148       -3.2848848273        2.9495018089
 O          0.4550660741        1.0902343114       -3.0871890671
 H          0.1469417021        1.0107294220       -2.1637723792
 H         -0.2324147220        0.6912918156       -3.6423151778
 O         -1.2395044336       -0.4396185585       -4.7251432502
 H         -1.3076908236       -0.3341219437       -5.6742921801
 H         -0.7786413474       -1.2881087308       -4.5611923722
 O          2.7268822105        0.4528280859       -4.2568214425
 H          2.7401747626        1.0015732449       -5.0421379193
 H          1.8923248059        0.6770882778       -3.7745631983
 O         -0.2006118520        1.0652283750       -0.5423280330
 H          0.6432315932        0.6454870875       -0.2994600348
 H         -0.8914729877        0.5769294209       -0.0691178181
 O          1.9731067916       -3.6422385181       -0.4614446183
 H          1.2579323709       -3.0081338132       -0.5877446795
 H          2.7810767970       -3.1502857766       -0.6365711310
 O          2.0700091632       -0.3593802086       -0.0386462768
 H          1.8811747573       -1.0295247872        0.6257543791
 H          2.6663347800       -0.7682598056       -0.6809629757
