  384
       -651.79310128
 O         -0.6669268854       -1.7663858599       -3.5366706790
 H         -1.1641850648       -2.3236633356       -2.9133734940
 H         -0.4200959377       -2.3470824985       -4.2748392692
 O          3.2824972679       -0.4094781636       -0.0518392905
 H          3.4306945040       -0.9751963644       -0.8314988665
 H          2.3271272112       -0.2274232306        0.0136466419
 O         -0.3716567860       -6.2734874134        0.3509717664
 H          0.5537694707       -6.5542468393        0.4400794691
 H         -0.4376942240       -5.8829023603       -0.5448687625
 O          1.6703785829       -0.8477157945       -5.3245449011
 H          2.4972790334       -1.3333775543       -5.1179288927
 H          1.9465658460       -0.0025522847       -5.6942024425
 O          0.1833532994       -2.2390542101        1.2623561073
 H         -0.6623582978       -2.6970636566        1.0820393466
 H          0.1290892651       -2.0523806877        2.2251900326
 O         -0.6181473936        0.7957236759       -4.1111325860
 H         -0.6373826443       -0.1849094282       -4.0323053470
 H         -1.4200436044        1.0626215575       -4.6177096399
 O          2.2385843068       -3.7280792408        0.5907252337
 H          2.9165789076       -3.2808466539        1.1249758411
 H          1.3925896829       -3.3401964061        0.9103506504
 O          1.0764862607        4.2491340719        0.1942862000
 H          1.6326828265        3.5438693857        0.5704579485
 H          1.6610645923        4.7406692964       -0.4152060230
 O         -1.3366444526        3.1033554365        0.0105429247
 H         -0.4645032360        3.5320602487        0.0680825268
 H         -1.9898778257        3.8337610728        0.0300061815
 O          0.6462895463        0.1321728868        0.3444886427
 H          0.4706261628       -0.7956544986        0.6400038571
 H          0.3606394930        0.6872303332        1.0914599232
 O         -4.7998190210       -2.6268340530        1.0796413850
 H         -5.4979048693       -3.2989351653        1.1915801203
 H         -4.7366335044       -2.4975866861        0.1052668561
 O         -0.2285787785        3.5339431139       -2.5780094044
 H         -0.1987354838        4.4545143356       -2.2288794815
 H          0.5406914333        3.0557729788       -2.2158847638
 O          1.7464463098       -0.4894226789       -2.5889873182
 H          2.7127594322       -0.3548250248       -2.6673116403
 H          1.4198615186       -0.6111016231       -3.4985922607
 O         -0.6424980446        0.4785597497       -7.2689889310
 H          0.0966387088        1.0185566790       -6.9362946866
 H         -0.4129352001       -0.4333737719       -7.0802039410
 O         -4.6345018854       -2.3234586251       -1.5140575304
 H         -5.0648143881       -1.5713213369       -1.9769320034
 H         -5.1546906458       -3.1190850493       -1.7309636997
 O          2.3041482834       -4.3025122154       -4.1394465406
 H          2.4027355729       -5.2344482347       -3.9323186870
 H          1.9969466304       -3.8734116110       -3.3068437722
 O         -2.5749532906        6.4058459010       -3.4628075231
 H         -2.7189428851        5.8276554231       -4.2213076088
 H         -3.3016603067        6.2264365593       -2.8435744649
 O          1.3954633248       -3.1058584640       -1.9129840374
 H          1.8141586291       -3.2686553706       -1.0492685910
 H          1.3905061491       -2.1442858104       -2.0767109917
 O         -0.4649047443        1.5390984513        2.4481211764
 H         -0.8147709487        1.1037832670        3.2582192777
 H         -1.0776323934        2.2831832018        2.2948786545
 O         -3.7933185825        1.4527727619        3.3610275236
 H         -4.7102274565        1.7629025376        3.4672967771
 H         -3.2873966054        2.2337546132        3.0846180445
 O         -4.5928952008        2.8199066954       -0.6104701315
 H         -4.0438993224        3.1312396807       -1.3526850557
 H         -4.0697599274        2.1396076814       -0.1367524583
 O         -2.2702254382        3.5835965957        2.6106223110
 H         -1.6785538384        4.1208081970        3.1804347195
 H         -2.6076727775        4.1718792237        1.9224693998
 O         -5.8608458790       -0.3283661414       -2.6527437250
 H         -5.4421391392        0.3749624610       -3.1982950661
 H         -6.3327965379        0.1642428789       -1.9481706303
 O         -2.9742484668       -5.8560679453        0.9244311512
 H         -3.2741526192       -5.8695053037       -0.0025604824
 H         -2.1016011191       -6.2782652925        0.9010437448
 O         -8.2871437292        1.5939735678       -3.3520551184
 H         -8.7738113149        0.8235206664       -3.0179699263
 H         -7.7230941176        1.8379403787       -2.5967295757
 O         -5.4612645934       -0.1900341275        1.7478961644
 H         -4.6671132300        0.3598947680        1.7500713710
 H         -5.1949403518       -1.0943212679        1.4545583490
 O         -4.9420529193        1.8367304381       -3.8168618967
 H         -5.5623319805        2.5162954144       -3.5068079384
 H         -4.0707827383        2.1642806639       -3.5585441489
 O         -2.6229909966        1.4456972771       -5.6991532307
 H         -2.0726965119        1.1528654565       -6.4509687012
 H         -3.3638229856        0.8147904541       -5.6234069252
 O          4.0975595586       -2.1566760902       -1.9091971011
 H          4.9351793445       -2.0752184733       -1.4115306617
 H          3.9124604808       -3.1179085154       -1.9042318422
 O          3.9174133091       -2.1447219855       -4.6108940030
 H          4.0750770007       -2.0349486539       -3.6496344670
 H          3.5711351049       -3.0469161995       -4.6866976942
 O         -0.3241692667        6.1110736010       -2.0826206231
 H          0.4433271267        6.2621360423       -2.6553291680
 H         -1.1273412303        6.3071719282       -2.6191682895
 O         -6.7192591796       -4.5468332915        1.1686983725
 H         -7.4141901608       -4.0325064246        1.6034700583
 H         -6.2195731331       -5.0100530566        1.8733655507
 O          5.4165782040        4.4581320351       -1.7367095509
 H          5.4777419358        4.1684014585       -2.6768175156
 H          6.3336857538        4.5264780403       -1.4258925673
 O          1.7393520079        1.9893810534       -1.6722795329
 H          1.6562994826        1.0544571949       -1.9603567136
 H          1.9753835223        1.9735917842       -0.7342715662
 O         -1.2258269129        7.0896381578        0.3154733209
 H         -0.8212205080        6.8724714480       -0.5426728943
 H         -0.5284478754        6.9676140111        0.9787877514
 O         -0.0154269065        4.2993810103       -5.1205866669
 H          0.5494097621        5.0744877255       -5.0604778081
 H         -0.0833674685        3.9606337893       -4.1943217082
 O          4.6750743886        2.1315236479       -0.7522934594
 H          4.3501145228        1.6043001321       -1.5128680777
 H          4.9024568962        3.0202011435       -1.1045880343
 O         -0.2826703473       -3.5076271617        5.6361758289
 H          0.6057330391       -3.7423007395        5.3287306082
 H         -0.8856946993       -4.1893375383        5.2996476198
 O         -1.7917441647       -4.6941409126       -4.2498270710
 H         -2.4373721760       -3.9646131961       -4.1589473565
 H         -1.1848898986       -4.4083491036       -4.9408438841
 O          4.2376206534       -5.0651993007        3.2018945167
 H          4.8225167830       -4.3775339549        3.6338098820
 H          4.4865646707       -5.8982590619        3.6018797810
 O          5.1597403723        0.6521086067        1.6211512896
 H          5.6913744202        1.4259055325        1.3893012976
 H          4.5942282093        0.4230531982        0.8672961041
 O         -6.4975892943        0.8679027845        5.5362803142
 H         -6.5489039213        1.5631020852        4.8665552495
 H         -6.5637150288        0.0212749707        5.0593765938
 O          0.3113126350       -3.2338261050       -5.6238662295
 H          0.7500388490       -2.3960182742       -5.8293955805
 H          1.0073536097       -3.7645482709       -5.1896358298
 O          4.2441672963        0.5033491452       -2.8224903796
 H          5.0434844819       -0.0476786996       -2.7447569748
 H          4.1713323086        0.7098561114       -3.7769496401
 O          0.8028732718        6.2255939484        1.9678839643
 H          1.7211532604        6.5141978609        2.0139112827
 H          0.8215597492        5.4561073932        1.3551264144
 O          1.2565157293       -0.1128557989        5.1114244834
 H          1.3926291680        0.7605314763        5.5491354281
 H          1.8486890548       -0.7540132003        5.5147128497
 O         -6.2944612855       -1.3805722153        3.9622425518
 H         -5.5733534163       -1.9897129345        4.1971666667
 H         -5.9296369655       -0.8295486992        3.2326584547
 O          1.7957668866        2.2885525402        6.0100093606
 H          1.8520178631        2.6504151261        5.1026815443
 H          0.9311784148        2.6007982074        6.3302224435
 O         -4.5551514800       -0.4712990424       -5.6338787713
 H         -4.6987640629       -0.9442703507       -6.4545571761
 H         -5.3984152366       -0.0129265871       -5.4288153796
 O         -7.0211532076        0.6614142477       -5.4950034873
 H         -7.0001945819        1.3799902233       -6.1258044160
 H         -7.4379472909        1.0373372096       -4.6770134807
 O         -7.5962153469       -1.6966872028       -4.1148477756
 H         -6.9178716929       -1.2228371793       -3.5703838271
 H         -7.6649684157       -1.1676200550       -4.9156783817
 O          4.1420531275        0.7352028919        6.2709784579
 H          3.3582899554        1.1380262260        6.6596192659
 H          3.8973637581       -0.1476650943        5.9509082051
 O          6.8280229399        2.8177859162        1.2436865005
 H          6.2105088129        3.4486009161        1.6518935448
 H          7.2489697884        3.2711001327        0.4940796413
 O         -2.9909199902        5.1603686437        0.3927797883
 H         -2.3714549243        5.9346402470        0.4105540331
 H         -3.5480162480        5.2958505989       -0.3937560896
 O         -8.0748060930       -2.3878853228        2.1969706719
 H         -8.8956093807       -1.8842305490        2.2551237993
 H         -7.4939503932       -2.0692674863        2.9218520986
 O         -2.8146429263       -1.0451205045        2.6702544453
 H         -1.9180703129       -1.1639942617        3.0376598698
 H         -3.1137692167       -0.1618517000        2.9396907139
 O         -0.4223015604       -1.6152267548        3.7273721958
 H         -0.4463646278       -2.3574736421        4.3625316236
 H          0.0373975125       -0.9003011881        4.1968607910
 O         -1.5418671321        0.7817786510        4.7782905310
 H         -1.1945260970        1.5021242743        5.3382480728
 H         -2.4917734323        0.9822132617        4.6818200156
 O          2.8609011823        3.0413862796       -3.9196564781
 H          2.5650245433        2.6405764051       -3.0826631256
 H          2.3869438590        2.5773379636       -4.6370465522
 O          5.5251674561        3.3731243228       -4.1367134958
 H          5.9646597113        2.5750187295       -4.4471205670
 H          4.5636476411        3.2178038943       -4.2117620070
 O          8.0857051928       -4.4874419660        3.3020483853
 H          7.9608777863       -5.0293539050        2.5095785545
 H          8.5516024204       -3.6928139977        2.9952232055
 O          6.8035580509        0.5288521608       -0.7225331188
 H          6.0754419584        1.1820197479       -0.6476545061
 H          7.5137065854        0.7798109816       -0.1178169557
 O          5.8770403146       -3.3681568094        4.2897045602
 H          6.0271170702       -2.5376696659        3.7996117491
 H          6.7064398808       -3.8716229400        4.1332830271
 O          4.3020570642        0.4667840260       -5.4896761379
 H          5.2040370012        0.7750342309       -5.6400714149
 H          4.3521902821       -0.4993509000       -5.4368638990
 O         -4.8479232401       -5.2515474043        2.9259479258
 H         -4.6299882175       -4.3729667594        3.2653641873
 H         -4.1713399483       -5.4867464052        2.2707769209
 O          2.5562218893        0.2184509598        2.7996598559
 H          1.9782564156        0.1089870901        3.5805396366
 H          2.9722394356       -0.6461914326        2.6495938961
 O          4.2397819878        1.9962932376        3.8757918064
 H          4.0070392524        1.8354169280        4.8062784048
 H          3.7239388104        1.3341553540        3.3558536703
 O          6.4648623875       -3.6589665779       -2.9190478193
 H          5.6847925577       -4.1691802103       -2.6456109903
 H          7.1600404329       -3.8368469588       -2.2828755921
 O          3.8727128871       -2.0617505492        1.9262300096
 H          3.7489561365       -1.4734611580        1.1443102756
 H          4.7840103027       -1.9435532446        2.2084262001
 O          1.5111096836        3.0229194609        3.4187448842
 H          2.1852652653        3.0587903883        2.7299146726
 H          0.8370011424        2.3847803902        3.0801532564
 O        -10.8503080143        0.4889081585       -0.4963947189
 H        -11.7301717475        0.4006090855       -0.8630394675
 H        -10.2404664247        0.0431591426       -1.1232770075
 O         -3.0587797743        3.0282297729        7.4758611436
 H         -3.7617268780        3.6741800898        7.4067073462
 H         -3.4069707794        2.1982762045        7.0738727309
 O         -3.6104028507       -2.6623662269       -4.0960555786
 H         -4.4430424856       -3.1724888963       -4.1651322499
 H         -3.7767801638       -1.8415738731       -4.5755538023
 O         -2.2195335268       -4.8792833975        4.2443439243
 H         -2.8302600225       -4.1049813609        4.2256973725
 H         -2.7811651461       -5.6556504368        4.2741066787
 O         -4.6404229353        5.6933810346       -1.7580228886
 H         -5.1636183665        4.9950000498       -2.2048711207
 H         -5.2758421676        6.3415483932       -1.4509867022
 O         -2.3706158317       -1.5568695031        6.0666927038
 H         -1.9739966035       -0.7813380121        5.6231946331
 H         -1.6453446929       -2.1635052764        6.2503887456
 O         -2.2039975145       -3.3014168990        0.9247931296
 H         -2.9828485932       -2.8101486368        1.2366499031
 H         -2.4313390417       -4.2501446425        1.0151350131
 O          2.3451340021       -6.3716010583        0.6514152699
 H          2.3216419118       -5.3827361339        0.6100326053
 H          2.7018726521       -6.5857558013        1.5124840334
 O          1.9518724609       -3.7102141950        3.9868641071
 H          2.7086919734       -4.2444080684        3.7052256326
 H          1.2350391207       -3.9450320616        3.3633674750
 O         10.2205779316        0.2591767908        2.5688884502
 H          9.5774750229        0.9431867051        2.9101130525
 H         11.0453431405        0.4018510980        3.0321194956
 O         -2.1394703716       -3.1653592762       -1.7242285199
 H         -2.0473876083       -3.1463427901       -0.7499669669
 H         -3.0133342837       -2.7709305358       -1.9177693181
 O          2.1321157869       -6.4762977391       -2.1644185522
 H          1.2294853120       -6.0917878665       -2.2192836574
 H          2.2127677035       -6.8055724545       -1.2617801220
 O        -10.0692363546       -0.4288766362        1.9292288660
 H        -10.4119886542       -0.1595153123        1.0502981847
 H        -10.6582931708       -0.0507551301        2.5830748284
 O         -0.0702990181       -4.6526299964        2.5278294077
 H         -0.8677760926       -4.7569025549        3.0657652817
 H         -0.1934365598       -5.2002878063        1.7339196544
 O         -3.4068087235       -5.5291168746       -1.7554480375
 H         -2.8666474730       -4.7017599491       -1.8183874923
 H         -3.2044116588       -6.0124937478       -2.5579333818
 O         -6.4171669223        3.9497552286       -2.8314410970
 H         -7.0481585505        4.1958116483       -3.5078705035
 H         -6.8929975648        4.0774991203       -1.9646050016
 O         -5.9771278877       -4.6531543026       -1.4958311684
 H         -5.1256485037       -5.1270844979       -1.5646711797
 H         -6.3023028123       -4.8021812938       -0.5940512180
 O         -0.2388291443       -5.2134989244       -2.1206816428
 H          0.1616406290       -4.3325958667       -1.9942911316
 H         -0.8472639980       -5.1050206997       -2.8832443539
 O         -6.0007505416       -3.9049123376       -4.2096871344
 H         -6.6650248116       -3.1941868612       -4.2678963373
 H         -6.1823413827       -4.3689213445       -3.3846800636
 O         -3.9129131284       -2.7889859681        4.2288595444
 H         -3.5710283185       -2.1826561421        3.5116956145
 H         -3.5167249723       -2.4009179491        5.0374445559
 O         -0.7813433246        3.0247564886        6.1126699234
 H         -1.5506040006        3.0949575844        6.7177622509
 H         -0.8106629416        3.7982430033        5.5346093017
 O         -2.8943726599        3.2844638748       -2.6940230040
 H         -1.9380250120        3.3272399141       -2.5174067149
 H         -2.9844142023        3.7627146941       -3.5418057720
 O         -7.3259061593       -1.7791274787       -0.3559114890
 H         -7.1647895841       -2.6399767245       -0.7491760377
 H         -7.5867119550       -1.9501585615        0.5692610863
 O         -5.5667431209        4.3467932768        1.3430033975
 H         -5.1825077735        3.7721698976        0.6423507382
 H         -4.9100711431        5.0338878217        1.4817814733
 O         -7.7728125078        0.9889692988        1.5175487326
 H         -8.5115209570        0.3936078170        1.7313204303
 H         -6.9543083483        0.4420700739        1.5324792136
 O          2.6906203307        2.2919028542        1.0120276570
 H          2.6214879711        1.4490303796        1.4942703417
 H          3.5118879819        2.2522810209        0.4791972743
 O         -7.5761891435        4.5920210488       -0.5902039230
 H         -6.9855594811        4.5882709485        0.1798733153
 H         -8.3438774033        4.0451150380       -0.3391400623
 O          6.0619820108       -1.9746559262       -0.0873826683
 H          6.2855628227       -1.0395411801       -0.2721864481
 H          6.8979673521       -2.4589706826       -0.2273485493
 O          3.5175707074       -1.7795190779        5.1291817606
 H          4.3446140096       -2.2696599653        5.1666873286
 H          2.9040928264       -2.3714337551        4.6539961503
 O          6.9712494175        0.9630058201       -4.8866743949
 H          7.7165803640        0.7275974857       -5.4385874469
 H          6.8166473892        0.1913971953       -4.2761702216
 O          5.1478985266       -4.5004423658        0.7178707048
 H          4.7145980423       -4.6497163951        1.5792052830
 H          5.2981395236       -3.5456180016        0.6229731309
 O          8.4140432033       -3.2839790044       -0.2475310111
 H          8.2779086403       -4.2093439897        0.0137067238
 H          8.7141444325       -2.8391248229        0.5746818547
 O          6.5476504283       -0.9561980522       -3.1499382176
 H          7.3982830833       -0.9301034927       -2.6531876696
 H          6.3941626152       -1.9074102940       -3.3000116616
 O          6.5078613150        0.8435655185        4.7144392252
 H          5.7443791814        1.2689820923        4.2588507281
 H          6.2061326248        0.7190005008        5.6186806805
 O          8.4856549368        2.0670503257        3.2924919953
 H          7.9470359741        2.3193546258        2.5184966892
 H          7.8659445206        1.6596229675        3.9206609289
 O         -3.9363771740        0.8585435724        6.2201877742
 H         -4.9041444630        0.8740660653        6.0379602378
 H         -3.7255524556       -0.0106970368        6.5705572356
 O          8.8413159581       -2.0921757697        2.1100116916
 H          9.4638200621       -1.3709824645        2.2837529292
 H          7.9580791157       -1.7297189327        2.3409207900
 O          5.0461417255        4.2504306224        2.7813581101
 H          5.5540683106        4.6077880196        3.5112812573
 H          4.6393829859        3.4195205272        3.1318033728
 O          7.9722816748        4.0378475516       -0.9378992173
 H          8.0773503580        3.2916829302       -1.5925275382
 H          8.7340507965        4.6056550874       -1.0455031107
 O          3.6245498615        6.3120026372        1.6714561761
 H          4.0647161173        5.5190395909        2.0355987539
 H          4.1869439813        7.0616145759        1.8655395377
 O          7.5211705420       -5.6475546088        0.7943101005
 H          6.6011017011       -5.2868788809        0.7407595648
 H          7.4975497202       -6.5440089649        0.4617188725
 O         -9.1084671704       -0.7466030467       -2.0767999199
 H         -8.4500382682       -1.0165529814       -1.3987893995
 H         -8.8488190617       -1.2486211130       -2.8694452472
 O          8.1896547453        1.9992891691       -2.5450594894
 H          7.8154013626        1.9330827359       -3.4330713442
 H          7.7426529693        1.3060153795       -2.0198530910
 O          9.3813817566        0.8114798677        0.0644660095
 H          9.7855375952        0.5698669252        0.9181972234
 H          9.9143208491        1.5006153158       -0.3313589608
 O         -6.8808003667        1.5110481888       -1.0474471072
 H         -7.2852254616        1.3479693909       -0.1834016401
 H         -6.0884208256        2.0623896135       -0.8984719228
 O         -0.3766388001        4.8568487521        3.9888038608
 H          0.3605117625        4.2274066352        3.8503211068
 H         -0.1293372647        5.6132108361        3.4320468608
 O         -6.2999960218        2.5241733003        3.2635190670
 H         -6.9238683532        2.0223838432        2.7124380150
 H         -6.0640013776        3.2976747936        2.7225160536
 O          1.9819915054        5.6318250416       -3.5371848543
 H          2.4567416843        5.8799864474       -2.7342874981
 H          2.3328296232        4.7476817603       -3.7580020057
 O          3.0759163877        5.6146273608       -0.9717818069
 H          3.9094257855        5.2062634083       -1.2636688856
 H          3.2634288759        6.0172523084       -0.1107139917
 O         -2.7342787443        4.1646644892       -5.2224557421
 H         -1.7772474431        4.2938045783       -5.3574712397
 H         -2.8976455163        3.2586523707       -5.5343962840
 O         -9.4625139894        2.8584830676        0.3107532879
 H         -8.8753283103        2.3376490465        0.8739750481
 H        -10.0275241568        2.2148958826       -0.1344272887
 O          8.9037667696       -1.1181084637       -1.9273227061
 H          9.1042994483       -0.4439608968       -1.2602645308
 H          8.8937869828       -1.9644531370       -1.4621548511
 O          4.1926795839       -4.8006126072       -1.8124189160
 H          4.4102539555       -4.8882486401       -0.8707335899
 H          3.4627378454       -5.4271440282       -1.9961214644
 O          1.1455684132        1.9404656099       -5.7107289306
 H          0.5702415986        1.4953077946       -5.0450486683
 H          0.7614005660        2.8326518511       -5.7916196496
 O          6.4818897133       -1.1246488223        2.9174743810
 H          6.6504502020       -0.5561960604        3.6936942873
 H          6.0241622058       -0.4954523938        2.2986961482
 O         -1.9592213329       -0.6696159331       -0.3497485827
 H         -1.0764251432       -0.2793022922       -0.3864020426
 H         -2.3985439814       -0.4479924991       -1.1929233963
 O         -3.1011130217        1.3450914182        0.8042019909
 H         -2.3672313435        1.9575785850        0.6044085962
 H         -2.7638035278        0.4849140420        0.4618669471
 O         -2.9231728979        0.0231400005       -2.7252924382
 H         -2.1165851189        0.5096148410       -2.9427341207
 H         -2.8632562267       -0.8433236488       -3.1349602075
