          15
 SCF done      -1.79709578
H             -0.5425054112           -1.1597996585            0.9180873603
C             -0.6112510051           -0.5412956740            0.0100749183
H             -0.5391308395           -1.1969144470           -0.8712436601
C              0.5103658647            0.5037878336           -0.0094871839
H              0.3911098457            1.1518924073            0.8600966290
H              0.3944399221            1.1152669956           -0.9056411629
O             -1.7891825170            0.2100258093           -0.0077307040
H             -2.5646581753           -0.3620747641            0.0026734602
N              1.8637421187           -0.1172780949            0.0059475209
H              1.9871272141           -0.7237037740           -0.8163106223
H              1.9839787968           -0.6890763206            0.8531041602
H              2.5930828886            0.6072400317           -0.0077051379
O              4.0417920018            0.8980804694           -0.4330478894
H              4.4908611279            0.3717308943            0.2295311718
H              3.7073596571            1.6972359997           -0.0307246830
          18
 SCF done     -13.80304659
H             -0.5425054112           -1.1597996585            0.9180873603
C             -0.6112510051           -0.5412956740            0.0100749183
H             -0.5391308395           -1.1969144470           -0.8712436601
C              0.5103658647            0.5037878336           -0.0094871839
H              0.3911098457            1.1518924073            0.8600966290
H              0.3944399221            1.1152669956           -0.9056411629
O             -1.7891825170            0.2100258093           -0.0077307040
H             -2.5646581753           -0.3620747641            0.0026734602
N              1.8637421187           -0.1172780949            0.0059475209
H              1.9871272141           -0.7237037740           -0.8163106223
H              1.9839787968           -0.6890763206            0.8531041602
H              2.5930828886            0.6072400317           -0.0077051379
O              3.6850763976            1.5656397704           -0.1032856659
H              3.6331544998            1.4706790869           -1.0552842186
H              4.3670492263            0.9794597659            0.2295634239
O              1.4684153828           -1.1172271820            2.2858221515
H              1.0144761348           -0.3407444641            2.6257659159
H              0.7962270222           -1.7692420564            2.0724018033
          21
 SCF done     -12.86670332
H             -0.5425054112           -1.1597996585            0.9180873603
C             -0.6112510051           -0.5412956740            0.0100749183
H             -0.5391308395           -1.1969144470           -0.8712436601
C              0.5103658647            0.5037878336           -0.0094871839
H              0.3911098457            1.1518924073            0.8600966290
H              0.3944399221            1.1152669956           -0.9056411629
O             -1.7891825170            0.2100258093           -0.0077307040
H             -2.5646581753           -0.3620747641            0.0026734602
N              1.8637421187           -0.1172780949            0.0059475209
H              1.9871272141           -0.7237037740           -0.8163106223
H              1.9839787968           -0.6890763206            0.8531041602
H              2.5930828886            0.6072400317           -0.0077051379
O              3.8592115203            1.3693191602           -0.3448589023
H              3.9083600039            1.0608809765           -1.2517535840
H              4.5043065849            0.8829145320            0.1726441116
O              1.4845503339           -1.0067249961            2.3461258607
H              0.9094685476           -0.2885411152            2.6574203591
H              0.8967796795           -1.7427226760            2.1685193670
O             -0.8759246099            0.5222628243            2.5915455726
H             -1.2295024098            1.3473034790            2.2496229240
H             -1.6196295869           -0.0837507021            2.5750716459
          24
 SCF done     -12.10616015
H             -0.5425054112           -1.1597996585            0.9180873603
C             -0.6112510051           -0.5412956740            0.0100749183
H             -0.5391308395           -1.1969144470           -0.8712436601
C              0.5103658647            0.5037878336           -0.0094871839
H              0.3911098457            1.1518924073            0.8600966290
H              0.3944399221            1.1152669956           -0.9056411629
O             -1.7891825170            0.2100258093           -0.0077307040
H             -2.5646581753           -0.3620747641            0.0026734602
N              1.8637421187           -0.1172780949            0.0059475209
H              1.9871272141           -0.7237037740           -0.8163106223
H              1.9839787968           -0.6890763206            0.8531041602
H              2.5930828886            0.6072400317           -0.0077051379
O              4.0679052338            1.1482813887           -0.1051795198
H              4.4466432345            0.6890110347           -0.8564280836
H              4.4760872797            0.7967207141            0.6882392376
O              1.4767460841           -1.0879903011            2.3370810462
H              0.8838502516           -0.3959512456            2.6771372068
H              0.9109418196           -1.8397078748            2.1516072344
O             -0.8285671830            0.5003588315            2.6605700357
H             -1.1337214070            1.3444232311            2.3196998317
H             -1.5918152742           -0.0787864026            2.5988138494
O             -4.0437341655           -1.0173471430            0.3710512325
H             -4.4380917619           -0.9070241376           -0.4959829592
H             -4.4132304781           -0.3330645769            0.9336214899
          27
 SCF done     -11.08791342
H             -0.5425054112           -1.1597996585            0.9180873603
C             -0.6112510051           -0.5412956740            0.0100749183
H             -0.5391308395           -1.1969144470           -0.8712436601
C              0.5103658647            0.5037878336           -0.0094871839
H              0.3911098457            1.1518924073            0.8600966290
H              0.3944399221            1.1152669956           -0.9056411629
O             -1.7891825170            0.2100258093           -0.0077307040
H             -2.5646581753           -0.3620747641            0.0026734602
N              1.8637421187           -0.1172780949            0.0059475209
H              1.9871272141           -0.7237037740           -0.8163106223
H              1.9839787968           -0.6890763206            0.8531041602
H              2.5930828886            0.6072400317           -0.0077051379
O              4.1099409709            1.1333756056           -0.1837430179
H              4.4589569302            0.6685333245           -0.9470353212
H              4.5747138668            0.8099888786            0.5904810234
O              1.4677537017           -1.1188739010            2.3613158667
H              0.8712406043           -0.4366932257            2.7116061713
H              0.9142062353           -1.8806631304            2.1824784257
O             -0.8334266395            0.4806299502            2.7012684146
H             -1.1085580946            1.3434869310            2.3828251473
H             -1.6170809069           -0.0702787387            2.6398370353
O             -4.0729661652           -1.0269319833            0.2933779684
H             -4.5149404554           -0.8447175360           -0.5380093938
H             -4.4536780947           -0.4339685633            0.9447978119
O              1.4581526715           -1.1948434592           -2.3432015206
H              0.7303105886           -1.8125697471           -2.2411712732
H              1.1024629234           -0.4070288200           -2.7619601348
          30
 SCF done     -10.92531660
H             -0.5425054112           -1.1597996585            0.9180873603
C             -0.6112510051           -0.5412956740            0.0100749183
H             -0.5391308395           -1.1969144470           -0.8712436601
C              0.5103658647            0.5037878336           -0.0094871839
H              0.3911098457            1.1518924073            0.8600966290
H              0.3944399221            1.1152669956           -0.9056411629
O             -1.7891825170            0.2100258093           -0.0077307040
H             -2.5646581753           -0.3620747641            0.0026734602
N              1.8637421187           -0.1172780949            0.0059475209
H              1.9871272141           -0.7237037740           -0.8163106223
H              1.9839787968           -0.6890763206            0.8531041602
H              2.5930828886            0.6072400317           -0.0077051379
O              4.1561665374            1.1044427109           -0.0919696953
H              4.5200495307            0.7397974379           -0.9011622418
H              4.6411778498            0.7238174855            0.6429499911
O              1.4982826874           -1.2607748910            2.3214263299
H              0.8851999224           -0.6190854732            2.7170000826
H              0.9710297443           -2.0315012317            2.1045344074
O             -0.7785555574            0.3323507348            2.7717664114
H             -0.9737667114            1.2389809045            2.5256650606
H             -1.6093614727           -0.1406148455            2.6868663855
O             -4.1524021925           -0.9475028149            0.0936366044
H             -4.6144170602           -0.6163101612           -0.6788291131
H             -4.5512914557           -0.5245020566            0.8563540869
O              1.4475658645           -1.1924089135           -2.3467117159
H              0.9008267526           -1.9614395827           -2.1778928806
H              0.8512317134           -0.5253108875           -2.7232126081
O             -0.8635420052            0.4079519542           -2.7406790105
H             -1.6712514680           -0.1037309449           -2.6587438446
H             -1.0976405554            1.2965812529           -2.4641111309
          33
 SCF done     -16.83702855
H             -0.5425054112           -1.1597996585            0.9180873603
C             -0.6112510051           -0.5412956740            0.0100749183
H             -0.5391308395           -1.1969144470           -0.8712436601
C              0.5103658647            0.5037878336           -0.0094871839
H              0.3911098457            1.1518924073            0.8600966290
H              0.3944399221            1.1152669956           -0.9056411629
O             -1.7891825170            0.2100258093           -0.0077307040
H             -2.5646581753           -0.3620747641            0.0026734602
N              1.8637421187           -0.1172780949            0.0059475209
H              1.9871272141           -0.7237037740           -0.8163106223
H              1.9839787968           -0.6890763206            0.8531041602
H              2.5930828886            0.6072400317           -0.0077051379
O              4.3247826448            0.9963753929            0.0085438853
H              4.9279512639            0.8227119899           -0.7168500556
H              4.8104669339            0.8570875079            0.8244486023
O              1.9726624361           -1.2233760830            2.4023667645
H              1.2461132028           -0.7507163166            2.8367264566
H              1.6549898909           -2.1139058922            2.2227287828
O             -0.3558581439            0.2216930415            3.0084934747
H             -0.3761602344            1.1800444553            2.9926419455
H             -1.2699505962           -0.0694677043            3.0201752187
O             -4.3200968317           -0.8407091295            0.0510632480
H             -4.8516517181           -0.5036129093           -0.6738760651
H             -4.7747773818           -0.5943448663            0.8600700276
O              1.6255305414           -1.3809067257           -2.3609522006
H              1.0872974752           -2.1733789022           -2.3623394049
H              1.0843286449           -0.7056694020           -2.8017658669
O             -0.4692354348            0.3296613653           -3.0016227505
H             -1.3832072363            0.0463599647           -2.9242608772
H             -0.4828961290            1.2870928410           -2.9521785983
O              1.1584659407           -2.8317264045            0.3097407103
H              1.8931188596           -3.1032015237           -0.2422262330
H              0.3782426033           -3.3153958466            0.0386009480
          36
 SCF done     -11.20343226
H             -0.5425054112           -1.1597996585            0.9180873603
C             -0.6112510051           -0.5412956740            0.0100749183
H             -0.5391308395           -1.1969144470           -0.8712436601
C              0.5103658647            0.5037878336           -0.0094871839
H              0.3911098457            1.1518924073            0.8600966290
H              0.3944399221            1.1152669956           -0.9056411629
O             -1.7891825170            0.2100258093           -0.0077307040
H             -2.5646581753           -0.3620747641            0.0026734602
N              1.8637421187           -0.1172780949            0.0059475209
H              1.9871272141           -0.7237037740           -0.8163106223
H              1.9839787968           -0.6890763206            0.8531041602
H              2.5930828886            0.6072400317           -0.0077051379
O              4.3906209348            0.8491395521           -0.0161814003
H              4.9492263511            0.7743416320           -0.7925962543
H              4.9261659117            0.6083413106            0.7431260765
O              2.0226686639           -1.3943798995            2.3262987011
H              1.2879485030           -0.9891372919            2.8096402125
H              1.7276717922           -2.2722942930            2.0611111016
O             -0.2740426860            0.0412386275            3.0135858230
H             -0.1225942359            0.9787880255            3.1421128440
H             -1.2167205862           -0.1067822425            3.1106621921
O             -4.3573691860           -0.6878783384           -0.0402108671
H             -4.8276860826           -0.3202912651           -0.7926538282
H             -4.8902742720           -0.4984120145            0.7356054053
O              1.6946438351           -1.3471205536           -2.3614304856
H              1.1884866950           -2.1559052892           -2.4392538813
H              1.1435829672           -0.6633359217           -2.7892662963
O             -0.3480328858            0.2688948909           -3.0930075093
H             -1.1951058776           -0.1701638124           -3.1828901092
H             -0.5682794651            1.1833914341           -2.8522197782
O              1.1172692056           -2.8853897888            0.2012068315
H              1.8497310116           -3.1371751394           -0.3640928321
H              0.3380504218           -3.3644455083           -0.0808938743
O             -1.3786673820            2.3518014279           -1.6747064192
H             -1.1454735539            3.0918342882           -1.1147636600
H             -1.7597033873            1.6791303218           -1.0854449907
          39
 SCF done     -10.93762034
H             -0.5425054112           -1.1597996585            0.9180873603
C             -0.6112510051           -0.5412956740            0.0100749183
H             -0.5391308395           -1.1969144470           -0.8712436601
C              0.5103658647            0.5037878336           -0.0094871839
H              0.3911098457            1.1518924073            0.8600966290
H              0.3944399221            1.1152669956           -0.9056411629
O             -1.7891825170            0.2100258093           -0.0077307040
H             -2.5646581753           -0.3620747641            0.0026734602
N              1.8637421187           -0.1172780949            0.0059475209
H              1.9871272141           -0.7237037740           -0.8163106223
H              1.9839787968           -0.6890763206            0.8531041602
H              2.5930828886            0.6072400317           -0.0077051379
O              4.1311325925            1.3880965357            0.0739237447
H              4.6495962539            1.4969799524           -0.7264516606
H              4.7397514796            1.1486277116            0.7770863815
O              1.9851294122           -1.7372067277            2.0836179433
H              1.3387791693           -1.3805373852            2.7067184642
H              1.5632925154           -2.5098913104            1.6759158424
O             -0.0689700648           -0.0917038068            3.0179894273
H              0.3322771430            0.7470680598            3.2501515845
H             -1.0076863611           -0.0186778993            3.1993704609
O             -4.3567750389           -0.8019468413           -0.5383631868
H             -4.5437055594           -0.2531550087           -1.3047754636
H             -5.1001037378           -0.6962119110            0.0603648547
O              1.6623814270           -1.2919145882           -2.3594261563
H              1.2824259150           -2.1507775352           -2.5360792876
H              1.0533284437           -0.6447640202           -2.7680370116
O             -0.4320388728            0.2347503165           -3.1089264583
H             -1.2308224669           -0.2830456366           -3.2173587882
H             -0.7396587980            1.1218152606           -2.8515962412
O              0.4856417115           -3.2408172319            0.3342782244
H              0.9569849130           -3.3173722919           -0.4954261887
H             -0.4580369473           -3.3027232058            0.1370404585
O             -1.6123091622            2.2674407401           -1.7612490641
H             -1.3377432964            3.0420308252           -1.2711734060
H             -1.8387035596            1.5930237426           -1.0957842638
O             -2.3656714117           -2.7902253087           -0.0734991132
H             -2.6560284411           -2.8449720979            0.8386608718
H             -3.1269053218           -2.4766977045           -0.5745326991
          42
 SCF done   41261.36781314
H             -0.5425054112           -1.1597996585            0.9180873603
C             -0.6112510051           -0.5412956740            0.0100749183
H             -0.5391308395           -1.1969144470           -0.8712436601
C              0.5103658647            0.5037878336           -0.0094871839
H              0.3911098457            1.1518924073            0.8600966290
H              0.3944399221            1.1152669956           -0.9056411629
O             -1.7891825170            0.2100258093           -0.0077307040
H             -2.5646581753           -0.3620747641            0.0026734602
N              1.8637421187           -0.1172780949            0.0059475209
H              1.9871272141           -0.7237037740           -0.8163106223
H              1.9839787968           -0.6890763206            0.8531041602
H              2.5930828886            0.6072400317           -0.0077051379
O              4.1311325925            1.3880965357            0.0739237447
H              4.6495962539            1.4969799524           -0.7264516606
H              4.7397514796            1.1486277116            0.7770863815
O              1.9851294122           -1.7372067277            2.0836179433
H              1.3387791693           -1.3805373852            2.7067184642
H              1.5632925154           -2.5098913104            1.6759158424
O             -0.0689700648           -0.0917038068            3.0179894273
H              0.3322771430            0.7470680598            3.2501515845
H             -1.0076863611           -0.0186778993            3.1993704609
O             -4.3567750389           -0.8019468413           -0.5383631868
H             -4.5437055594           -0.2531550087           -1.3047754636
H             -5.1001037378           -0.6962119110            0.0603648547
O              1.6623814270           -1.2919145882           -2.3594261563
H              1.2824259150           -2.1507775352           -2.5360792876
H              1.0533284437           -0.6447640202           -2.7680370116
O             -0.4320388728            0.2347503165           -3.1089264583
H             -1.2308224669           -0.2830456366           -3.2173587882
H             -0.7396587980            1.1218152606           -2.8515962412
O              0.4856417115           -3.2408172319            0.3342782244
H              0.9569849130           -3.3173722919           -0.4954261887
H             -0.4580369473           -3.3027232058            0.1370404585
O             -1.6123091622            2.2674407401           -1.7612490641
H             -1.3377432964            3.0420308252           -1.2711734060
H             -1.8387035596            1.5930237426           -1.0957842638
O             -2.3656714117           -2.7902253087           -0.0734991132
H             -2.6560284411           -2.8449720979            0.8386608718
H             -3.1269053218           -2.4766977045           -0.5745326991
O              4.2630383572           -1.4841137186           -0.2483703106
H              4.4528396774           -1.8849852010           -1.0988797297
H              4.5195268874           -2.1153847270            0.4267587926
