  101
       -167.55160669
 H         -3.1685561172        3.2119895630       -0.4422786940
 C         -3.6403833468        2.2419231897       -0.6425434002
 H         -4.6381982061        2.4140978337       -1.0515575387
 C         -3.7424343373        1.4498851372        0.6611111380
 H         -4.2344653951        0.4911739572        0.4778670288
 H         -4.3725734086        2.0264003436        1.3519394622
 N         -2.4112450933        1.1808643170        1.1993748407
 H         -2.5056276292        0.7915083343        2.1420405198
 H         -1.9027517359        2.0555894952        1.2924607601
 O         -2.9112848926        1.5572622243       -1.6387371402
 H         -1.9965871135        1.4135561214       -1.2973138048
 O          1.5362340201       -2.6836675580       -0.1765238117
 H          1.6047959790       -3.0432290017        0.7468995789
 H          2.4314830868       -2.7398775145       -0.5545738713
 O          5.6636269365        2.0349432464       -1.5596376220
 H          4.8605371197        2.5198413023       -1.7802643645
 H          5.5745369746        1.1516324392       -1.9673924956
 O          2.8919497681        3.1817896791       -1.4561170475
 H          3.0103512264        3.1550706559       -0.4878566317
 H          2.0617935450        3.6688089339       -1.6093226514
 O         -3.3484531241       -1.0317912457       -2.3971955104
 H         -2.4358347970       -1.1023107548       -2.7375850754
 H         -3.4163351717       -0.1025166831       -2.1077429099
 O          0.2598390197        0.9849733075       -3.8203912301
 H          1.2070777913        0.9053785795       -3.5871541289
 H         -0.1138185121        0.1059693672       -3.6539733394
 O         -2.6937778622       -2.9192704716       -0.5639823619
 H         -2.9927328530       -2.2603497435       -1.2260901289
 H         -1.9318210697       -3.3773105330       -0.9644644100
 O          1.1687541414        1.7115802932        1.9902971299
 H          2.0100369895        2.1938381397        1.8578152352
 H          0.4890755781        2.3270511402        1.6492926644
 O          5.0012877822       -0.4212935484       -2.6127558579
 H          4.1134821876       -0.0537746020       -2.7735423561
 H          4.8485052960       -1.2309689535       -2.1090233626
 O         -5.4838912108       -2.5761426310       -1.4865119298
 H         -4.9424710574       -1.9985658911       -2.0469976710
 H         -4.8809860667       -3.2458708562       -1.1469191374
 O          0.5225134434        4.5490534963       -1.8458557994
 H         -0.1587716844        4.0560391573       -2.3615785795
 H          0.7013989057        5.3417648469       -2.3519745799
 O          3.3453380198        3.1128972898        1.2620619583
 H          3.5815876633        3.9438739636        1.6732437319
 H          4.1968072397        2.5665708604        1.2352199718
 O          2.5505677657        0.7501648537       -2.4581078215
 H          2.7309020149        1.6780219829       -2.1794205294
 H          2.2931675007        0.3051246061       -1.6363799900
 O         -0.3445923909       -3.8684410236       -1.5973184723
 H          0.3509939933       -3.4528921658       -1.0256139526
 H         -0.1194784206       -4.7954332674       -1.6687462240
 O         -0.6583734234       -1.2561294338       -2.4984304729
 H         -0.4306255789       -2.1936272827       -2.5086510425
 H         -0.6315512160       -0.9984959369       -1.5544541641
 O         -0.4048006853        3.4219065364        0.5982612949
 H         -0.0245347199        4.2111998947        0.2017849862
 H         -0.3942198772        2.7674878699       -0.1318593316
 O         -1.2944603695        3.2523433085       -3.3544159331
 H         -2.0146073031        2.7970911843       -2.8957693200
 H         -0.7855383775        2.5541258263       -3.7945199716
 O         -0.2663079547        1.4591602571       -1.2051436102
 H         -0.0418296185        1.4461517916       -2.1568547478
 H          0.3719813771        0.8709913640       -0.7639053340
 O          1.1698727962       -0.1769807769        3.9561065224
 H          1.1030827727        0.5977024363        3.3701717615
 H          0.4622484306       -0.7786354555        3.6813508497
 O          1.6789677669       -0.0109550360        0.0618322248
 H          1.3957205006        0.4873944885        0.8653518437
 H          1.3540684993       -0.9331351079        0.1046970613
 O         -2.6648086569       -3.4981196136        2.1671271951
 H         -3.4444858424       -3.0346692427        2.5113131954
 H         -2.7301120924       -3.4302061620        1.2032467080
 O         -1.0295628674       -0.8908731831        0.2427801143
 H         -1.7002258432       -1.5844482673        0.1110048789
 H         -1.5280078396       -0.0702872677        0.5201308105
 O          4.2141736372       -2.5722847997       -0.8374426512
 H          4.8675776518       -3.2444347771       -0.6447290816
 H          4.3097731027       -1.8754579828       -0.1418351038
 O          4.1396063168       -0.6562205120        0.9828397780
 H          3.9259922658       -0.9748565485        1.8814474775
 H          3.3016804429       -0.2973707832        0.6208837704
 O          1.6858763789       -3.4112711153        2.3312092415
 H          2.3848206525       -2.8866324769        2.7533798312
 H          0.8462898462       -2.9983090971        2.6127459739
 O         -0.5833199144       -1.9342992249        2.6804889207
 H         -0.5981542163       -1.5030704015        1.7954792910
 H         -1.2868942656       -2.6225594567        2.6187031830
 O         -6.0186826026       -1.0483552095        0.6394825683
 H         -6.9526781633       -0.8395552242        0.6154850075
 H         -5.8447577208       -1.6175104555       -0.1468729784
 O          3.3488620720       -1.4902386208        3.4213753821
 H          2.5443300006       -0.9471724744        3.6676631920
 H          3.9269109000       -1.4769351338        4.1835079335
 O         -4.8076234659       -1.9002398361        2.8879337036
 H         -5.5227186713       -2.0581760509        3.5045771661
 H         -5.2120638932       -1.5536674321        2.0632833175
 O          5.4922183478        1.7146710624        1.0771345953
 H          5.7230368600        1.8792227138        0.1329995213
 H          5.1714495921        0.7954373216        1.0946352734
 O         -2.6502712554       -0.2567946705        3.6607659827
 H         -1.8847669444       -0.8397057289        3.5502647324
 H         -3.4289303558       -0.8058565614        3.4889852805
