  609
      -1033.89413497
 O          3.5546535679        7.2863943648        3.0318599272
 H          3.9080837948        7.9816358739        3.5852510641
 H          4.2462086161        6.5846137816        2.9636540852
 O          2.2512231717        2.1478952513       -4.4329052133
 H          1.6719317340        2.4157253852       -3.6921545997
 H          2.1616302860        2.8649954241       -5.0948407615
 O          8.3434952905        3.8178344099       -0.8505076147
 H          7.6561865686        3.9881287299       -1.5126422331
 H          7.9482497465        4.0309478369        0.0104089541
 O         -3.6795525030        1.3012923404        2.6170917410
 H         -3.4960647802        1.6769291570        3.4904653204
 H         -4.5489074659        0.8836100721        2.6741772807
 O         -4.6521607498        4.5759204928        0.4451705001
 H         -4.1571413348        4.3159986500        1.2534213626
 H         -5.5913714480        4.6477550691        0.7137776932
 O         -2.0854062999       -4.1015417439       -4.7315740218
 H         -1.2736114407       -4.4224644315       -5.1294435599
 H         -2.8036642279       -4.6577667282       -5.0657849906
 O          1.9191477282        1.6011567054        0.9092702241
 H          2.6310583881        1.2256519432        1.4505471541
 H          1.6207062275        2.4236518048        1.3330778751
 O          5.1748833432        6.1752972217        0.0456560211
 H          5.6763814067        6.5448318362        0.7711074011
 H          4.6697241128        5.4120811265        0.4192501506
 O          1.7698841358       -1.2561337076        1.4966073756
 H          1.7509216254       -2.1265134660        1.9182971186
 H          2.5689278378       -0.8102288062        1.7938202189
 O          0.8768789766       -3.5796356897       -3.5686517655
 H          1.7785020162       -3.2043100387       -3.5580633226
 H          0.7505073695       -3.9579003917       -4.4594364422
 O          3.1972886763        4.0314650814       -1.9351713674
 H          4.1530337523        4.0330119342       -2.1155019107
 H          2.8817027231        3.0913216861       -1.9617184772
 O          6.2629083655        1.6793337535       -1.8864952099
 H          6.0379401136        2.0216151266       -1.0015046143
 H          5.7240242710        2.1634615711       -2.5426596739
 O         -2.8405552029       -1.0735129848        1.4813021420
 H         -3.3561533978       -0.3053331945        1.1665902078
 H         -2.8494733253       -1.7101505297        0.7448520928
 O         -0.5367177698        2.0447190514        6.2675903571
 H         -0.7463102424        1.6577557317        5.4018171164
 H         -1.1860150773        1.6870795063        6.8814712700
 O         -0.9343357599        3.3595956803        3.4613076472
 H         -1.8710825784        3.4630672012        3.2265437766
 H         -0.7914328615        3.9130444831        4.2477703823
 O          3.8348756845       -0.0833706945       -4.5361644907
 H          3.0773339702        0.5205294635       -4.4982466324
 H          4.2114028069       -0.0629660207       -3.6380095817
 O         -2.2632620248       -6.4235983213        4.3103737748
 H         -3.0283339174       -6.3755048712        4.8891111550
 H         -2.1618692581       -5.5209508112        3.9106200408
 O          0.2964374388       -5.5845819193        1.3788557380
 H          1.1082853530       -5.7979982015        0.8887934893
 H         -0.1482718053       -6.4307386434        1.5189246319
 O          1.5630880618       -1.0901961627        4.3010514604
 H          0.8879913765       -1.5992929101        3.8103166413
 H          2.4288940824       -1.3807797898        3.9579298370
 O         -0.5390406247       -1.0415907774        6.2907602493
 H         -0.4465561981       -1.9768574995        6.0521006614
 H         -0.6472298818       -0.5648389245        5.4415034112
 O          3.4987259728        3.1884359705        3.1543299255
 H          4.2709479783        2.6333875674        3.3552569854
 H          2.7180301658        2.6511108555        3.3608396733
 O         -1.8162784539        4.4350029420       -1.7972575351
 H         -2.6178610402        3.8823805505       -1.8289194091
 H         -1.5802715256        4.5300610009       -0.8705171341
 O         -3.5434428636        4.0678589991        2.7841477769
 H         -3.4830697354        4.9985747748        3.0723617321
 H         -4.4074577880        3.7278822663        3.0870784456
 O         -2.4852544354       -2.4722700346       -0.7498252459
 H         -1.7004024053       -2.8682987812       -0.3116409154
 H         -2.1725725803       -2.2560389409       -1.6514662140
 O          1.7866033761       -2.2400548831       -1.1301833943
 H          2.1650528968       -1.7861802733       -0.3572999629
 H          2.4226911526       -2.9461135862       -1.3358005088
 O          8.1781450964       -0.4464962261       -2.4302099128
 H          8.1615555280       -0.4288390125       -3.4084447302
 H          7.3356502650       -0.0844762370       -2.1290417357
 O         -1.8724346557        2.4691118838        0.9783569046
 H         -2.6237768710        2.1113000063        1.4855989113
 H         -1.8603538200        3.4322705653        1.1056137127
 O          2.4265341410        1.5658847764       -1.6588813285
 H          2.2368352738        1.6157137733       -0.6955764194
 H          3.1935432003        0.9467177066       -1.7472421329
 O          2.1892747161       -2.7183009518        6.3907479183
 H          1.9012405848       -2.0916345325        5.6913449186
 H          1.3886468954       -3.1878927892        6.6378215315
 O         -2.3735383786       -5.2334693360        0.5798693000
 H         -3.2611928283       -4.8165555317        0.4737896876
 H         -2.5118595503       -6.1235890583        0.9536917377
 O         -0.9412931716       -2.0867000614       -6.5235500665
 H         -1.7528436759       -2.5992039934       -6.6345821326
 H         -0.9828836149       -1.3735446350       -7.2153367292
 O          2.7754540031        6.8859241290       -1.1228720500
 H          3.6928896476        6.7515504262       -0.8364875683
 H          2.7501692304        6.8200323781       -2.0877881582
 O         -3.1141194629        3.3303223107       -6.0467674378
 H         -3.2641700351        2.3822465506       -6.1781726698
 H         -2.1798633912        3.3940779538       -5.7891936381
 O          8.0206621951       -4.1159468959       -4.0432107312
 H          7.5119929913       -3.5078562651       -4.5990102697
 H          8.9376892993       -3.7965196695       -4.0454296321
 O         -2.0215271819       -4.9635403301       -2.0642180863
 H         -2.0522747827       -5.1321127855       -1.0968760840
 H         -1.1333674274       -4.6575600447       -2.2620421193
 O         -9.0578628955       -1.6200483226        1.8835193127
 H         -9.8406418073       -1.6068002199        1.3088437304
 H         -8.5525653482       -2.4173421569        1.6377262113
 O         -7.5517834744       -3.5239218430        0.7466730134
 H         -7.2889865044       -4.4553417918        0.5883360112
 H         -6.7203276168       -3.0051290604        0.7910679393
 O         -0.5379374488       -1.9982147831        2.8615505021
 H         -0.3338755281       -2.3191369111        1.9619940611
 H         -1.0508667061       -2.7323219969        3.2413626348
 O          0.4769893234        3.2283342494       -2.7260077348
 H          0.6406643498        3.9028360230       -2.0463178677
 H         -0.1698143995        2.6303106583       -2.3083103029
 O         -0.4890190749        6.1874991820       -3.2899732007
 H         -0.4723589657        6.8520917519       -2.5893244823
 H         -0.9032783903        5.4047710056       -2.8682907336
 O         -6.2152849834        0.1682154501        2.8525882525
 H         -6.5874468634       -0.3734651154        3.5687571572
 H         -6.9912021015        0.6556863233        2.5074819053
 O          8.7265172317        2.7503969831        5.2077174192
 H          9.1596252707        3.1295411500        4.4277731324
 H          8.8199950543        1.7901310849        5.0929701453
 O         -4.8324582186       -6.1504712965       -1.7031834763
 H         -4.0619774939       -6.7200724002       -1.5048832617
 H         -5.0771018275       -6.2961191079       -2.6184500114
 O          3.6749838787        4.0962891919        0.6270927536
 H          3.2944854670        4.0986601279       -0.2815956252
 H          2.9535412039        4.0153874540        1.2635917250
 O          5.6600547096       -2.4475392968       -2.4423811254
 H          5.9952818250       -1.8918269432       -1.7246196814
 H          5.9057380429       -3.3619410302       -2.2248349024
 O          0.5481191763       -5.9688126646        4.3076961295
 H          1.0924532379       -6.5740874317        3.7730544322
 H         -0.3133135201       -6.3910299755        4.3949367206
 O         -4.8845765244       -5.3884787907        5.0534787940
 H         -5.0751510828       -5.7550543117        4.1681408736
 H         -5.5848865578       -4.7409742346        5.2102954961
 O          3.6153202451       -4.2306594956       -1.2156975825
 H          3.8364432171       -4.1197444071       -0.2773072485
 H          4.3723088119       -4.6519538749       -1.6326050658
 O          1.8122563449        4.3128656642       -5.9465707929
 H          1.8936197971        4.9653397316       -5.2212828045
 H          0.8683623729        4.1398370191       -6.0537253117
 O          5.4851615113        2.1247519484        0.6723538247
 H          4.7320691707        2.7517844703        0.6523940341
 H          6.2080888440        2.6576086333        1.0508906572
 O          1.5456802447       -1.2946703428       -5.6554634265
 H          0.7276234248       -1.7463961070       -5.9006747139
 H          1.4817444689       -1.0722897167       -4.7035443041
 O         -1.3155120221       -2.0802198031       -3.1411836863
 H         -1.7660266980       -2.6143126351       -3.8116397450
 H         -0.4224157370       -2.4650111170       -3.1181055570
 O          0.4422748328       -4.4495732909       -6.0818103824
 H          0.0356386924       -3.6686883410       -6.4890422579
 H          1.3414981933       -4.5225118819       -6.4935127486
 O          2.0521945657        3.4838269851        5.7169330077
 H          1.7517570397        2.7380775468        5.1651749506
 H          2.0643764133        4.2444804171        5.1125503171
 O         -1.1524995769        0.0110871770       -8.0415752096
 H         -0.3581938316        0.5347114477       -7.8406865727
 H         -1.9045553150        0.4168030510       -7.5800556118
 O          4.3286931860       -0.1290695426       -1.9273958461
 H          4.2405796513       -0.7503423859       -1.1602063869
 H          5.1617237482        0.3597494479       -1.8028330602
 O         -3.5236496826        2.1452729026        5.2134477185
 H         -4.4742760803        2.0620372574        5.3531091540
 H         -3.1167763238        1.5721248910        5.8955360385
 O          4.5192462925        2.8216390509        6.3940611780
 H          3.6169388361        3.1800396805        6.2268594436
 H          4.4311582276        2.2585341222        7.1875796051
 O          1.2406589308       -0.4764266607       -3.1149655980
 H          1.4316741101       -1.1783563243       -2.4591053239
 H          1.5915903050        0.3424747519       -2.7291640920
 O         -3.3603456954       -3.4482468165       -7.1913378898
 H         -3.6529682946       -4.3150773205       -6.8590928406
 H         -3.6937859402       -3.3504504224       -8.0825968585
 O         -0.8120839578        0.2183752596       -4.8182028484
 H         -0.1816246171       -0.0421421684       -4.1238818861
 H         -1.0632793551       -0.5961788153       -5.2768575204
 O         -0.0972123754       -7.4529738246       -1.3619252205
 H          0.2189049630       -7.7964035473       -2.1994729452
 H          0.2698011928       -6.5279807301       -1.3192794372
 O          8.3571616926       -4.2972207533        1.7893343549
 H          7.4640844892       -4.4952475372        2.1166384278
 H          8.8938045285       -4.2123266124        2.6064304969
 O          2.7665390926       -6.3726717142        0.5826037249
 H          3.3575291682       -6.7698628114       -0.0862579645
 H          3.2623283710       -5.6140676646        0.9644276955
 O         -6.0337782588        3.0752617569        3.0844843849
 H         -6.0441701952        2.3463815902        3.7246868957
 H         -6.0951363997        2.6875686827        2.1859082665
 O          7.2336328002        3.9250919110        1.6249763186
 H          6.6137238373        4.4874632897        2.1212091740
 H          8.0452725356        3.8086324968        2.1514608931
 O          8.4430216948        2.3490021557       -3.4335087777
 H          8.0725593593        2.2902353736       -4.3221177793
 H          7.7220960134        2.1050524784       -2.8304564864
 O         11.1780352417        3.2049787376       -1.0064899393
 H         11.1912319731        2.7874226060       -0.1300683793
 H         10.2982139122        3.5915349995       -1.1085301314
 O         -4.1017346504        0.6942526473       -0.1026497384
 H         -4.8395554514        1.1860305105        0.3194808619
 H         -4.5023676246        0.0248577705       -0.6838403419
 O          4.4110740418        3.7326106845       -6.7561685293
 H          4.3626722982        2.7702902380       -6.9291930824
 H          3.4967899393        4.0348732349       -6.8207371259
 O         -1.1239159180        0.3390052527        4.0273499983
 H         -0.8394058804       -0.4394509310        3.5114666177
 H         -2.0875830219        0.2325324183        4.0555833269
 O         -7.6649560174       -0.1238197909       -0.0261685358
 H         -8.1134144882       -0.5432135041        0.7262265655
 H         -8.3529925388        0.1093558504       -0.6619213546
 O         -8.2051368497        2.0114150371       -5.3164046544
 H         -7.7961940717        2.0765261187       -4.4235338409
 H         -8.7846247333        1.2323716794       -5.2478864751
 O          5.8958741219       -6.0159325267        1.0486929636
 H          5.4469651872       -6.2513563998        1.8766082670
 H          5.6542895688       -6.6825783528        0.4010638590
 O          6.1876556359       -3.4109853497        0.1964818703
 H          6.1044311538       -4.3396695251        0.4710574214
 H          6.9970292786       -3.3296490378       -0.3460761921
 O         -6.3162815778        1.8075653913        5.4973962937
 H         -7.2510382113        1.5677999532        5.5567611567
 H         -6.2830765652        2.7646366490        5.7441155195
 O          1.6685175250        5.5069302698        3.9298713411
 H          1.6012203598        4.9035017563        3.1580458979
 H          2.3291447020        6.1747264575        3.6883777940
 O         -6.5752790267        5.9522359300        3.6022181908
 H         -6.7561379644        5.4746559556        2.7744049041
 H         -6.1259963374        6.7581174021        3.3408163968
 O         -1.5906585126        5.1386689950        0.9688751366
 H         -1.2052096845        5.6285629360        1.7197408256
 H         -2.2763300335        5.7099098791        0.5962120436
 O         -0.5101944453        6.7007683979        2.8647519885
 H          0.1146878427        6.2479028125        3.4628554099
 H          0.0609640647        7.2026804405        2.2585860629
 O          1.6098809906       -3.7173136214        2.8329628914
 H          1.9417738993       -4.1217126043        3.6500382685
 H          1.0006711785       -4.3758623154        2.4538120982
 O          6.1899497808       -1.7529761792        2.3157781998
 H          6.8063694906       -1.0051743576        2.2700955540
 H          6.2975946547       -2.2812769923        1.4985557297
 O         -3.9284930236       -1.7797884829       -5.0682375173
 H         -3.6531945738       -2.3783562443       -5.7792372522
 H         -4.9093312726       -1.7958492573       -5.0895330149
 O         -8.5281550530        1.4180694081        2.2584090793
 H         -8.6385440929        1.8017152666        1.3545116650
 H         -8.6036590010        2.1730953625        2.8510147619
 O          4.0215603609        1.0510228985       -7.0412876477
 H          3.0605423105        1.0913225954       -7.1946466835
 H          4.1351006865        0.6718007821       -6.1532948918
 O         -4.5692107525        4.0966706029       -3.9769707740
 H         -4.0455095285        3.7835827139       -4.7560135293
 H         -4.3651720413        3.4904900723       -3.2438333956
 O          7.1557882792       -2.2613786705        5.0947369162
 H          6.4199424671       -2.0106803281        5.6690773304
 H          7.6386557918       -1.4451489272        4.9006181913
 O          4.7013265609       -1.5085845214        6.3296658192
 H          4.4900770801       -0.6359095110        5.9317000257
 H          3.8656819530       -1.9184854144        6.5946111192
 O          0.1284141444       -6.6966857808       -4.3345951672
 H         -0.8274485303       -6.8454943325       -4.2460964077
 H          0.2458438831       -6.1201094285       -5.0975418318
 O          4.7815548724        2.6411072665       -3.8612289927
 H          4.8592246601        3.5844566302       -4.0965004344
 H          3.8509532350        2.3883744716       -4.0585752064
 O          6.2291317591       -5.1883861647       -2.1393456030
 H          6.6837664302       -5.1893389089       -2.9896040245
 H          6.9470446884       -5.3890310338       -1.4863285151
 O          3.7578601099        0.6314640082        4.9722905320
 H          4.1486442386        1.4274260580        5.3803062577
 H          2.9025056266        0.5113704643        5.4272957178
 O         -0.2401831658       -3.1784102450        0.4188221315
 H          0.5133263703       -3.0186840793       -0.1822937258
 H         -0.1941617327       -4.1258223028        0.6446779539
 O          3.9799076075        0.3574794844        2.2280161274
 H          3.9657157027        0.4183258542        3.2017158515
 H          4.6731316360        0.9517886163        1.9000052966
 O         12.1860716505       -0.6528022504        0.9567049238
 H         13.0935894273       -0.6185898396        0.6565058587
 H         11.6461708426       -0.9454924070        0.1880306382
 O         -6.1260527004       -2.8791316329        4.9837408533
 H         -6.9838630716       -2.4888462868        4.7686573282
 H         -5.6936741434       -2.1984292575        5.5326513533
 O         -3.0860734329       -3.4535030003        5.5847342118
 H         -3.3501876120       -3.1689680280        6.4594556503
 H         -3.6945550320       -4.1820356395        5.3344579865
 O        -10.3829225583        2.7321998449       -3.3461617142
 H         -9.8524480476        3.4953621636       -2.9969700819
 H        -10.1122423253        2.6146198499       -4.2612491063
 O         -4.1120893835       -3.3485354921       -2.8638855399
 H         -3.3406750745       -3.8989296051       -2.6249595085
 H         -3.8465216013       -2.8100219041       -3.6365747954
 O         -3.2484921320        4.8360074181        5.7143944425
 H         -3.2981336591        3.8993589730        5.4372453048
 H         -2.3314257810        4.9568604572        5.9963219988
 O        -10.3672252824        4.2017252736        1.6027867365
 H         -9.7918611189        4.2403227580        2.3790716807
 H        -10.2480407190        5.0387893459        1.1147479475
 O         -5.1642551645       -1.1514456370       -1.7468247591
 H         -5.0134853497       -0.5634148552       -2.5228486009
 H         -4.7452763136       -2.0007956927       -1.9896676230
 O         -6.6937994458        3.8692846503       -1.3191187831
 H         -6.2475639081        4.6465391509       -1.6902404648
 H         -6.7100821282        3.1670136211       -1.9997836044
 O         -2.6780901837        0.4068320717        7.0877732266
 H         -3.5208521036       -0.0709614308        7.0094014910
 H         -1.9709345599       -0.2488240050        6.9287997793
 O          6.0690019617       -4.2108162150        3.3837024177
 H          6.3526439620       -4.3894890294        4.2799760752
 H          6.2528816742       -3.2597076787        3.2484608394
 O          6.5511637967       -0.6607336253       -0.3117727691
 H          6.3577230657        0.1628115064        0.1412749653
 H          7.3651475559       -1.0149746894        0.0883962078
 O         -4.6260715225       -3.4598375964        2.7656428698
 H         -4.8665140258       -2.8746519308        2.0250737997
 H         -5.1731150477       -3.2046625382        3.5318123074
 O          1.4255922904        7.7139880572        1.1929103285
 H          2.1647662549        7.6848885581        1.8143294310
 H          1.8162464129        7.5073805124        0.3302575076
 O         -4.1200423172       -5.6639820497       -5.7289334988
 H         -3.6939067618       -6.3576441738       -5.2001534767
 H         -4.9217636914       -5.3944829579       -5.2408265617
 O         -9.5883559272        0.7278381041       -1.8262328406
 H         -9.9154146895        1.4027281171       -2.4677786958
 H        -10.2653390128        0.0517838577       -1.7802561613
 O         -9.0852971007        1.4946674671        5.2117103483
 H         -9.9045291136        1.1683672612        4.8037970094
 H         -9.0016466042        2.4107023141        4.8972006738
 O         -8.0557762746       -1.0485848692        4.3771534477
 H         -8.4536544897       -0.2635168245        4.7778024110
 H         -8.5258899633       -1.2174256853        3.5435691743
 O         -4.5992543725       -3.9857518122       -0.0469470306
 H         -3.9922900542       -3.3084120963       -0.3967397456
 H         -4.8119640907       -4.5645326887       -0.7907915136
 O         -6.0391018532       -4.6612692028       -4.1128393392
 H         -6.7823635918       -4.9157685038       -3.5313012381
 H         -5.3750450038       -4.2165120972       -3.5350182578
 O         10.6380453650       -0.7004998970       -4.6636382744
 H          9.7390579331       -0.5522061824       -4.9985949562
 H         10.7796608009       -0.0244901192       -3.9777427587
 O          0.9473746449       -5.0564564970       -1.3662101052
 H          0.9211872654       -4.5955188990       -2.2279554924
 H          1.8939152457       -5.1845351512       -1.2047096631
 O         -2.0916352507       -4.1406230931        3.0173194377
 H         -1.9141192775       -4.4755812570        2.1162316241
 H         -3.0121572105       -3.8068287104        2.9825085797
 O         10.7898582407        1.6841523796        1.2854409250
 H         10.0178691612        1.3978184177        0.7430587985
 H         11.3651742753        0.9036392874        1.3422187445
 O         -2.7628401848       -7.7915352679       -1.1130629365
 H         -2.9197549828       -8.1373250851       -0.2323481300
 H         -1.7975814560       -7.6107458654       -1.1699586627
 O         -6.1694348517        0.4033530668       -6.1652618632
 H         -6.8961181203        1.0460392216       -6.0326284137
 H         -6.5460179297       -0.4810879957       -6.0798686651
 O          0.8240401694        5.0657562540       -0.6357226985
 H          1.6441059325        5.5632163031       -0.8000707628
 H          0.1303884073        5.7485135073       -0.6346598543
 O          4.1021913836       -1.6300832405        0.1838995104
 H          4.3409830225       -1.0663113639        0.9282235034
 H          4.7717201900       -2.3334700924        0.1467094690
 O          1.0555496755        3.9882106379        1.7980548454
 H          0.2311726954        3.7449127651        2.2740516924
 H          0.7995519113        4.3984592955        0.9434694127
 O          1.2371947195        1.0292187191       -7.0027497943
 H          1.3212732748        0.2020764467       -6.4821011483
 H          0.9147521813        1.7065666222       -6.3983063608
 O         -6.0653485742        6.3641142475       -2.3435135114
 H         -5.1749933206        6.6090290638       -2.6298872828
 H         -6.5637289508        6.1968937914       -3.1503679567
 O         -8.8821478139        2.7406517404        0.0075567857
 H         -9.6069802499        3.2281151815        0.4601777498
 H         -9.2892206103        2.1241920469       -0.6157148507
 O          8.6690380511        1.2433947530       -0.2077570471
 H          8.5521034003        2.1496268936       -0.5660780278
 H          8.7489245780        0.6488482034       -0.9699744030
 O         -4.9088196032        7.5987118237        1.6498384330
 H         -4.3518896746        7.5217773432        0.8623107074
 H         -4.3345165355        7.3564651150        2.3906670087
 O          8.7761491140       -1.7418052446        0.9142221066
 H          9.3941106299       -1.6878379623        0.1638736021
 H          8.6207340192       -2.6926129184        1.0958608290
 O          2.0320715254       -7.7185492732        2.7415608420
 H          2.3199078641       -7.2485627935        1.9241845961
 H          2.8452594685       -7.7995110910        3.2495139494
 O         10.4191166896       -1.3650835835        3.0008134990
 H         11.2524834836       -1.1931857242        2.5491561591
 H          9.7531071619       -1.4236391431        2.2755456123
 O         -2.6038962103       -6.9148045733       -3.7928840668
 H         -2.7317064251       -7.6658827356       -3.2078445447
 H         -2.4360505764       -6.1497333926       -3.1909694778
 O          8.2434671852       -2.9809588679       -1.5134245797
 H          8.2970520322       -2.0418039988       -1.7838567879
 H          8.1607229253       -3.4663121575       -2.3477291256
 O         -5.0149460529       -0.6258654309        6.0815783979
 H         -4.4648116792       -0.6845290284        5.2672722938
 H         -5.5749882006        0.1553136540        5.9736922049
 O          8.3564740329       -5.6113665884       -0.6151369010
 H          8.9515306199       -4.9595446160       -0.9966917433
 H          8.2963647173       -5.3756722054        0.3269451674
 O         10.4803644194       -2.9672812976       -3.3946788135
 H         11.2789338724       -3.4531321552       -3.5964425519
 H         10.5392823283       -2.1146056331       -3.9142121020
 O          4.0653249278        0.8026920943        8.1132280703
 H          4.5526572078        0.0024939405        7.8892798703
 H          3.1526950069        0.6532890419        7.8084074998
 O          9.4139881446       -3.6642291315        4.1485099637
 H          9.9406756391       -2.8976202206        3.8681155058
 H          8.6403348366       -3.2973281285        4.6000802664
 O         -2.7431054720       -7.5201946977        1.9309048960
 H         -1.9296937044       -8.0075768996        1.7145262769
 H         -2.5955580544       -7.2361169459        2.8626359134
 O        -10.7625465950        0.3894940976        3.3337216218
 H        -10.8370857049       -0.5638914279        3.2911780400
 H         -9.9639057198        0.6280704283        2.8116702644
 O         -6.2180827291        2.0181730308        0.6178569490
 H         -6.8193768736        1.2789456220        0.3838648366
 H         -6.3876714835        2.7221028813       -0.0338427394
 O         -7.6421099905       -1.2373111158       -2.7855743357
 H         -8.2048100770       -1.8563321235       -2.2735306320
 H         -6.8225560744       -1.1448877286       -2.2594630994
 O          4.8397165798        5.2508984543       -4.5495076974
 H          4.8439513304        4.9042849244       -5.4617747042
 H          3.9673073857        5.6421979244       -4.4145304106
 O          2.8886062682       -4.4694456829       -7.0186362317
 H          3.2486286304       -3.5896624420       -7.2030906689
 H          3.4149217098       -4.7974046266       -6.2653385783
 O         -9.4183661578       -0.3130659260       -4.6426714264
 H         -9.5058941368       -1.0860099653       -5.1993451456
 H         -8.8216742706       -0.5621013873       -3.9133200745
 O         -8.5018613101        3.8264232846        3.7992273693
 H         -8.4938531509        4.6569464543        4.2786295347
 H         -7.5657568850        3.7050029969        3.5019545253
 O         -5.1853254197       -6.0539510679        2.3959646395
 H         -4.9420638247       -5.1049221085        2.3094577078
 H         -4.4224301935       -6.5862031281        2.1422294045
 O          9.6782197944        3.5713368261        2.7587456709
 H         10.0982888727        2.8087630554        2.2931708356
 H         10.2819590700        4.3063310220        2.6518785485
 O         -3.4378115029        6.3914217665       -3.2010429469
 H         -3.7704443071        5.5215985380       -3.5292060789
 H         -2.5339259901        6.4675507629       -3.5280074764
 O        -11.2144775501        1.1854115315        0.6286556150
 H        -11.5623745437        1.9102799382        0.0706589548
 H        -11.4576454582        1.3763786889        1.5393523524
 O         -7.1399997827        1.8054114714       -2.8837629828
 H         -6.3017992306        1.3361986151       -3.1273683123
 H         -7.7292176682        1.1544725544       -2.4860353661
 O         -3.1872634167        6.5878939854        3.6318177691
 H         -2.2470591295        6.7716304531        3.4837876636
 H         -3.2635182901        6.1896211948        4.5196501588
 O          4.4837608599       -7.2025176869       -1.3210312737
 H          3.7904383642       -7.1756064636       -2.0038612360
 H          5.1737893811       -6.6103637443       -1.6620216904
 O          2.1377891350        5.7757453886       -3.6825122839
 H          2.3660985226        5.0472355035       -3.0663179889
 H          1.1731916540        5.9397534226       -3.5717831541
 O         -0.2602328609       -8.2976164781        1.2557803993
 H         -0.0108825275       -8.1816695069        0.3232764408
 H          0.5501623828       -8.4026627035        1.7729659784
 O        -11.0725533967       -1.3403647859        0.0239174282
 H        -11.9663924110       -1.6765605217        0.0809028102
 H        -11.1277715574       -0.3650668814        0.2148844430
 O          3.4293488844       -4.5351366405        4.7037240534
 H          3.0443457355       -4.1823818829        5.5188329475
 H          3.8221661874       -3.7555765359        4.2624437883
 O          4.5513911527       -6.6957913528        3.4465545768
 H          5.2846137118       -6.9455241291        4.0075539661
 H          4.1242514523       -5.9318993124        3.8810029866
 O          3.3364825198       -2.5895595715       -3.6738164944
 H          3.4177984932       -1.7425625592       -4.1528147010
 H          3.9791510790       -2.5347127165       -2.9415082468
 O          7.9245600735       -0.4574498720       -5.0903091412
 H          7.2791045725       -1.1767164008       -5.2408494314
 H          7.4919887641        0.3669973776       -5.3727792395
 O         -9.8168108139        6.1601855894       -0.1823202562
 H         -9.0893403529        6.7748591084       -0.0271038055
 H         -9.6271426799        5.7487558183       -1.0411634547
 O         -8.9566724892        4.7077888162       -2.3831067663
 H         -8.2995445871        4.2984527853       -1.7728090890
 H         -8.4289282948        4.9064887192       -3.1777074300
 O          5.9191694068        2.0501487479        3.6091212566
 H          5.9746169827        1.4214414263        4.3585264056
 H          6.2336956037        2.8906450446        3.9903169909
 O          8.7387803660        0.0476966177        4.5209131156
 H          8.3274501571        0.2505478627        3.6479880954
 H          9.5470055247       -0.4293436655        4.2651360142
 O         -6.8199178203       -6.0545019767        0.2080782901
 H         -6.1132178056       -6.1606968593       -0.4519973514
 H         -6.3853732477       -6.2063599731        1.0671707182
 O         -0.5483232354        4.6857502872        5.8278922787
 H          0.3210682104        5.0880944080        5.8743698675
 H         -0.4398792509        3.7697492362        6.1620440420
 O         -7.1447052274        4.7135147380       -4.4194585924
 H         -7.4913126238        4.1287418521       -5.0976875182
 H         -6.2045853680        4.4481394874       -4.3001667968
 O         -7.2256174744        4.8016803809        1.2037629655
 H         -7.3642282759        5.6581180329        0.7466013769
 H         -7.7363933339        4.1391737257        0.7206902117
 O         -9.0886394696       -2.8560153933       -1.2805468216
 H         -9.8557768442       -2.4020470139       -0.9100868188
 H         -8.5014653670       -3.0835498905       -0.5146047375
 O          3.8680103609       -4.1564420003        1.5338564114
 H          4.6026145330       -4.2389842173        2.1549835102
 H          3.0777684294       -3.8673009994        2.0361057589
 O          5.9247999591        4.5784787952       -2.0413844221
 H          5.9000713770        5.0200546097       -2.8986356893
 H          5.7882496135        5.2569662994       -1.3585598037
 O          4.2972448927       -4.8252097309       -4.7353405341
 H          5.2168873359       -4.6305316509       -4.9280124214
 H          3.9212254447       -4.0003562081       -4.3467967347
 O        -11.9038020032        3.1852646385       -1.0120418375
 H        -11.5741151965        3.0895103185       -1.9155020538
 H        -11.6670207828        4.0651502274       -0.7088726852
 O          6.6939422197        1.8998364944       -5.5846179307
 H          5.9392019578        2.0821144870       -4.9830086283
 H          6.4690159488        2.3004319863       -6.4248881843
 O          1.6934124882        0.4884361210        6.7390110354
 H          1.1495922988        1.2899785395        6.7049902421
 H          1.0465966697       -0.2387144691        6.6927149314
 O          7.5996798450        0.5741097185        2.1960587106
 H          8.0101114858        0.8575421935        1.3610146357
 H          6.9890198875        1.2646708426        2.5172867073
 O          4.0028402970       -2.0885485335        3.7327211154
 H          4.3816795739       -1.8954840875        4.6063250385
 H          4.7151408446       -1.8797607207        3.0978478477
 O         -5.0428805063        0.5557070418       -3.7170685151
 H         -4.1817254620        1.0574665750       -3.7429482717
 H         -5.3338731408        0.4594933757       -4.6450908995
 O          5.2396529430        5.2408481160        2.9821396001
 H          4.5411501004        4.5548926265        2.9237150495
 H          5.6666627111        5.0771034909        3.8437901482
 O         -3.3939526194        6.6699936336       -0.5103476539
 H         -3.3765721699        6.6050726369       -1.4888056742
 H         -3.9582263870        5.9070309436       -0.2343336542
 O         -6.0244154648        4.4233730163        5.8229778773
 H         -5.1222460590        4.6719863170        6.0590021793
 H         -6.2334372948        4.9645069160        5.0395966868
 O         -7.1895685578        7.1850570130        0.0415768370
 H         -6.4901263989        7.5293949658        0.6163215753
 H         -6.7803224678        7.0102912106       -0.8236152698
 O         -0.4749136094        2.9344545072       -5.2780675026
 H         -0.6642957716        1.9853015502       -5.2050525813
 H         -0.2881898369        3.2212145597       -4.3659088655
 O          1.3235835141        1.6275216408        3.8031587151
 H          1.3578685118        0.6693718417        3.9876432294
 H          0.4024889973        1.8614027672        3.6311718695
 O         -0.7055165655        7.3492712957       -0.7752941969
 H         -1.6591474821        7.2791921783       -0.6114216469
 H         -0.3195519659        7.9099921753       -0.0990913081
 O         -3.4043121327        0.5403267341       -6.4660083157
 H         -4.3158697254        0.6317245199       -6.7665587030
 H         -3.4268333831       -0.2211936783       -5.8549770448
 O         10.6084118927        1.0435665682       -2.5342268333
 H         11.0546481399        1.7807278533       -2.0747889135
 H          9.8057093105        1.4662033153       -2.9111873122
 O          3.9536174212       -1.8948448396       -6.7709163485
 H          3.1135502844       -1.6738139613       -6.3225069863
 H          4.1883514869       -1.1107487190       -7.2780583167
 O         -2.7852251753        1.7523699487       -3.7999231552
 H         -2.1914595099        1.1238467786       -4.2432455178
 H         -2.3958307802        1.9283414573       -2.9288805174
 O         -4.0314776496        2.9486013337       -1.5687535693
 H         -3.9150918852        2.0804749107       -1.1415799658
 H         -4.3711634165        3.5376498384       -0.8659622185
 O          6.4593164075        4.2103133890        5.1378636689
 H          7.3226764982        3.8079580043        5.3540648284
 H          5.8031163155        3.8194772586        5.7470356659
 O         10.6061859137       -1.2754865583       -1.1162125411
 H         10.5493714868       -0.4383268056       -1.6265877008
 H         10.5297643729       -1.9814229422       -1.7797066591
 O         -5.6162371778       -1.6991309170        1.0280819439
 H         -5.6380032492       -1.3868857637        0.1169830525
 H         -5.8481887666       -0.9527008311        1.6162935868
 O         -6.5987124664       -2.1682928125       -5.0768657977
 H         -6.9874554461       -1.8167988263       -4.2473228256
 H         -6.5096501481       -3.1276958581       -4.9215660933
 O         -7.9924255524       -5.1908535978       -2.3382316987
 H         -8.5237743025       -4.4159168546       -2.1080964454
 H         -7.7941323811       -5.6350562909       -1.5065269665
 O          2.6688469417       -6.5116615609       -3.1825920271
 H          1.8105002935       -6.6296301640       -3.6097755265
 H          3.2248538030       -6.0125045114       -3.7953028069
 O         -3.3683894645       -1.1434520043        4.1089980617
 H         -3.1489630429       -2.0120152307        4.4821151606
 H         -3.2939783313       -1.2156790203        3.1374006725
 O          6.0951918231       -2.4178846697       -5.1187820862
 H          5.3230009854       -2.2279999349       -5.6852307017
 H          5.8224471034       -2.2933917279       -4.1881148496
 O          6.4439742081        0.6975744992        5.8659089007
 H          7.3486321057        0.4266090899        5.6638670141
 H          6.4776573592        1.2867455735        6.6197967662
 O         -0.3202270513       -3.6427687794        5.4986000735
 H          0.0649447210       -4.4044613649        5.0358580800
 H         -1.2800388542       -3.7552978846        5.4444547143
 O         -1.3260460128        1.6365101854       -1.5509696263
 H         -1.6105875515        1.9637909137       -0.6713063867
 H         -0.9282624232        0.7729201877       -1.3008158914
 O         -0.3607917661       -0.4181609046       -0.2257544276
 H          0.4203246090       -0.3205944009        0.3285612408
 H         -1.0872699587       -0.6004119211        0.3798047037
 O         -0.7366748986        3.3812448465       -8.3062303751
 H         -1.5156259415        3.2179884890       -7.7674322821
 H         -0.0519087952        2.7690257789       -8.0303773717
