  376
       -636.83871324
 H          0.2469450365       -0.3018327613       -1.3359014973
 O          0.6709242204       -1.1879147057       -0.9822204610
 H          1.2658902558       -1.5052597781       -1.7420594992
 H          1.3197473745       -0.9814075446       -0.2032347872
 O          1.3507008289       -3.4944138703        0.4618600516
 H          2.1316469242       -3.4237987128        1.0457805220
 H          0.6405820307       -2.9587684119        0.8580591991
 O          2.2883398605       -1.7915989330       -2.8507947205
 H          2.9797487321       -2.1167195900       -2.2198277749
 H          2.4803876335       -0.8637412938       -3.0486319236
 O         -2.1983792579        0.1664239643        0.2427056952
 H         -2.7941818940       -0.6049059472        0.3693399305
 H         -2.6603207249        0.7149512366       -0.4192471382
 O         -0.3644774909       -2.1087414899        5.8416412235
 H         -0.6311759077       -1.5897237096        6.6353439344
 H         -0.7773609337       -1.6751320657        5.0641530606
 O         -1.0398367560        3.8157905559        4.5397210864
 H         -1.2657834770        2.8966931607        4.7933851795
 H         -0.7889395512        3.7836421171        3.5865865214
 O          1.1890716458        0.3611742613       -4.2938693383
 H          1.3800793200        1.2305406860       -4.6506486143
 H          1.1273880813       -0.2529834997       -5.0520123757
 O          1.5625036762        5.6736779796        0.5977951191
 H          0.7683170416        5.9589766876        1.0649063233
 H          1.6896886140        6.3232927863       -0.1217111710
 O          3.6830837075        0.9580917166        1.9245374917
 H          3.5726352201        1.7227491445        1.3310828458
 H          3.3111244817        1.2002032056        2.7825440976
 O          0.6462537017        1.0106044804        3.0788907112
 H          1.1840473469        1.8144431296        3.1626865717
 H         -0.2890686802        1.2755944908        3.0101261890
 O         -1.8483454526       -3.7939639914       -0.7282566581
 H         -1.1372317972       -4.1830599472       -1.2695862556
 H         -1.9802030725       -2.8898537470       -1.0886791173
 O         -1.9091072408       -1.5154162953       -2.0660313186
 H         -1.4412127526       -1.9440920569       -2.7967759809
 H         -2.7786617545       -1.2557396275       -2.4291386995
 O          2.2185594294       -5.2599445804       -3.7307389326
 H          1.6659782896       -4.9895862870       -2.9640002214
 H          3.1253267544       -5.4133177569       -3.3857625540
 O          2.8748536779        3.6045135270       -2.3238300264
 H          2.8136622535        3.3904746311       -1.3770119111
 H          3.8129685594        3.5555598004       -2.5528596783
 O          1.8831732578        3.4125331987        2.5716443206
 H          0.9990851258        3.6591509371        2.2445733777
 H          2.1720283809        4.1347883810        3.1627847522
 O          4.0560722081        1.2180509739       -3.8034048707
 H          4.2963818584        0.3269217628       -4.1154708981
 H          3.4849032476        1.0988016592       -3.0098021001
 O          2.4267201194       -0.9717661523        0.7996751159
 H          2.9195945325       -0.1692720105        1.1057879155
 H          2.1185118841       -1.3669932483        1.6434923100
 O         -1.9832434575        3.7880927061       -1.2571985197
 H         -1.0199505791        3.6729381689       -1.0728123013
 H         -2.0444795734        4.4288097091       -1.9726274944
 O         -0.6317121664        3.8371526507        1.9158232368
 H         -1.2748161815        3.1132120010        1.7929908698
 H         -0.9876978072        4.6599835941        1.5244418052
 O          5.3853015027       -1.3229633745        1.4418975320
 H          5.5365290918       -0.7106984754        2.1842891072
 H          5.0779260236       -0.7366370175        0.7161285403
 O         -3.7694436696       -1.9515976414        0.5949373807
 H         -4.6882040683       -1.7341062671        0.8737359987
 H         -3.4195803571       -2.5564565451        1.2799900168
 O          5.9971717743        0.3743146362        3.5356397071
 H          5.6944817416        1.2795935733        3.4030311591
 H          5.2572968084       -0.0899736454        3.9696086882
 O          2.2026006304       -2.8802478159        6.1817461350
 H          1.2728469174       -2.7108828753        5.9492536119
 H          2.5181274263       -2.0385162674        6.5305658382
 O          0.3772143627        3.2062121626       -3.4508899887
 H          1.1600352768        3.2091728272       -4.0300082618
 H          0.7010106275        3.1932803057       -2.5335799353
 O         -1.3997276775       -0.8876674400        3.7011784113
 H         -0.9672207804       -1.1787889110        2.8739932895
 H         -2.3552220614       -0.8532529323        3.4946516900
 O          3.2206474496        3.0493822956        0.3013143236
 H          2.7191868125        3.3597707878        1.0833498413
 H          3.9893702530        3.6365216615        0.1905552342
 O         -0.6975385759        1.0516206644       -6.9887868125
 H         -0.8434873110        0.5963918693       -6.1371618209
 H          0.2555208776        1.0493457152       -7.1701590060
 O         -4.6805247036        1.2878737136        1.1029269398
 H         -4.4529705593        0.5392459188        1.6846111136
 H         -5.0331318539        0.9172342450        0.2764390405
 O         -6.1396940142        0.2220488700       -0.9410669766
 H         -6.8615577378        0.8942582892       -0.8742826859
 H         -6.3757694058       -0.3452423195       -1.7015073330
 O         -0.6532825521       -1.9225578379        1.3643398360
 H         -1.0090431323       -1.3962854734        0.6386610247
 H         -1.3327369382       -2.5763036004        1.6099462965
 O          4.5760690293       -1.3115232773       -4.5829783881
 H          5.2267398550       -1.7592709700       -4.0313425662
 H          3.8735649593       -1.9706578819       -4.7469913478
 O          2.6438603229        0.6622543236       -1.6268254706
 H          3.4674170906        0.6075786960       -1.1025023818
 H          2.0308204211        1.2030469558       -1.1201997950
 O          6.3804846688        2.3802628188        0.8720502391
 H          5.8858408421        2.6615122048        1.6667374024
 H          7.1270610467        1.8370125277        1.2185139867
 O         -1.2227269285        6.2886044358        1.1687420186
 H         -2.0789133633        6.6303800901        1.5239131526
 H         -1.1921619410        6.5684333613        0.2287203997
 O         -0.0616859306       -2.4065888910       -3.9216000730
 H          0.8615452533       -2.1242942861       -3.8374602408
 H         -0.0754297955       -3.2004057336       -4.5014888841
 O         -1.2105597687       -0.6959328497        7.9105472633
 H         -0.6459287090        0.0856625693        7.9302114055
 H         -2.0773369370       -0.4216763846        7.5726985758
 O         -1.2210968976       -2.7062567910       -6.7214752466
 H         -0.4129537223       -2.1598157740       -6.6458972583
 H         -0.9128863705       -3.6182696757       -6.7174850273
 O          0.1434093933       -3.7486149183        3.4605261783
 H         -0.2939146721       -4.1648824138        2.6804223424
 H         -0.4608224944       -3.8464273737        4.1978784893
 O          3.8279033215       -2.5119894618       -0.9099711953
 H          3.7833418639       -3.4419622503       -0.5979447469
 H          3.4346511783       -1.9658202409       -0.1972030252
 O          2.8099471839       -3.2683404577       -5.2889767276
 H          3.2575045080       -3.6696296098       -6.0338296206
 H          2.5810065697       -4.0076436204       -4.6587213657
 O          8.1875236171        0.7154006346        1.8501434148
 H          7.6659274764        0.4923050572        2.6330368348
 H          8.2916238614       -0.1027128791        1.3443984172
 O         -1.5145327281       -4.4127636384        6.2337153834
 H         -1.0124706542       -3.5576737066        6.1668238392
 H         -1.5164632593       -4.6566339872        7.1585184816
 O         -1.8002153382       -5.4152904397       -3.2245818270
 H         -2.7544784113       -5.5716546983       -3.1267710824
 H         -1.3389518555       -5.9089021307       -2.5275673379
 O         -0.4206898649        0.7282310284       -2.1586729042
 H          0.1083780333        0.6852784522       -2.9798819593
 H         -1.2116830923        0.1764486170       -2.2861346487
 O         -7.2313110988       -0.1436279173        3.2641384631
 H         -7.3665603668        0.7601712476        2.9219063364
 H         -6.9242144469       -0.6453731631        2.4828146147
 O          3.1107781244        1.7793043558        4.5479555844
 H          3.1838236831        1.0666528940        5.1936621704
 H          2.4806493362        2.4203472434        4.9296160762
 O          6.0507684910       -3.0046262156        3.7999271428
 H          6.8260041578       -2.4471956655        3.7257308447
 H          5.3024986436       -2.3990696976        3.9863556029
 O          0.5015839242        1.1532784272        0.4094519624
 H          0.6904155298        1.0226950694        1.3584675984
 H         -0.4180875362        0.8926290273        0.2716538768
 O          2.5004318357        2.8677274734       -5.1489939691
 H          3.0968541600        2.2463230466       -4.6664778660
 H          3.0494058783        3.6836378532       -5.2415465047
 O         -6.9921963315        2.2739207489        2.0792446123
 H         -6.8714995368        3.1708151999        2.4409975215
 H         -6.1087896978        1.9935850338        1.7612857899
 O          0.5603424467        3.5158393518       -0.7618033952
 H          0.9612128802        4.2255250849       -0.2313482466
 H          0.5995439740        2.6815104583       -0.2467053622
 O          1.5780089333       -6.1474624555        0.4968703552
 H          1.2470503492       -5.2205844244        0.5286934134
 H          1.5778284582       -6.4106780980        1.4321113754
 O         -4.6581282989       -2.8305483415       -1.7308875121
 H         -4.7220032137       -2.0225194367       -2.2679372787
 H         -4.1985440822       -2.5612864820       -0.9063402794
 O         -3.9805270700       -5.3259043411       -0.3672564468
 H         -3.2378871154       -4.6947485610       -0.5166313114
 H         -4.3707002872       -5.4834389283       -1.2352529440
 O         -3.9916171145       -0.5414028159        3.0235998109
 H         -4.6053413945       -1.2781751923        3.2168072337
 H         -4.1942336979        0.1729045834        3.6412508865
 O          2.2145542046        5.8920591134       -3.4330645454
 H          2.3583832070        5.0256219154       -2.9771283287
 H          1.5516421590        5.7339590272       -4.1281839736
 O          7.5861344128        2.3689315927       -1.7607046356
 H          7.6225873443        1.4208176047       -1.9554207382
 H          7.4393555613        2.4365534974       -0.8108324371
 O         -3.7569359018        6.4834015648       -1.7232806214
 H         -2.8774083228        6.8671567166       -1.6322328257
 H         -3.7190116698        5.8171422451       -2.4247648372
 O         -3.3254131222        3.6208673629        1.0124278714
 H         -3.8073023106        2.7700829039        0.9981648089
 H         -2.8291813703        3.6817075808        0.1674724844
 O         -6.3211286645       -1.4283606229        1.0661424417
 H         -6.3491904841       -0.7539493344        0.3383882488
 H         -6.7222831468       -2.2238327865        0.6602596643
 O         -1.4103212754        1.2405654149        5.2766697021
 H         -1.2517692767        0.5513444346        4.5968382126
 H         -2.2375093720        0.9486782316        5.7024081606
 O          0.0779131097        6.4597063424        3.6073522930
 H         -0.5027475323        5.9797948639        4.2028694845
 H         -0.4071820198        6.5678768362        2.7745867501
 O         -6.9244168095       -3.5443894318       -0.4507099781
 H         -6.7449260227       -4.3051138760        0.1059312222
 H         -6.1115974072       -3.3762478894       -0.9765742620
 O          5.0341224822        0.4848773776       -0.4935597761
 H          5.3935269438        1.2419088790        0.0121364155
 H          5.7510806376        0.2161547554       -1.1045086779
 O         -0.3718396297       -6.9339131211       -1.2695561466
 H          0.0583379024       -7.6199452157       -1.7795144393
 H          0.3117457396       -6.5999281329       -0.6462863803
 O         -0.7892929909       -5.0589002544        1.3925038180
 H         -1.2236153264       -5.9242797324        1.3753379898
 H         -1.1964485545       -4.5400385968        0.6796955300
 O         -3.9757843785        4.3098323523       -3.5452163642
 H         -4.1659051203        4.6236039236       -4.4287005782
 H         -3.3401929623        3.5732577103       -3.6451240828
 O         -0.9729371240        7.0308437313       -1.3745557242
 H         -0.0959975640        7.4395621123       -1.3733120420
 H         -0.9593816647        6.3928722029       -2.1209665845
 O         -2.6401068771       -3.3893982894        2.5122630337
 H         -2.7947721359       -4.3547536754        2.6037802099
 H         -2.8156437208       -3.0101285605        3.3903859986
 O          2.5351979238        5.5099004386        4.1352009913
 H          3.2450390481        5.8984283960        3.6126363306
 H          1.7258587922        6.0259326824        3.9521593662
 O         -3.4771779272        4.5277496072        3.5650496214
 H         -2.6403589293        4.3881135433        4.0501985608
 H         -3.3212226943        4.2022995808        2.6552435050
 O          3.5165570728       -3.3230942618        1.9732411382
 H          3.5342616787       -3.6756883966        2.8779091047
 H          4.1886474812       -2.6277514705        1.8916379485
 O          7.8035376969       -1.6597980765        0.4451821001
 H          6.8920116462       -1.6408725257        0.8340080559
 H          7.9317253368       -2.5634017811        0.1343129279
 O          1.6508967607       -6.0084186365        3.2820619706
 H          1.2257592266       -5.1284999696        3.2780196533
 H          2.4839147012       -5.8552001652        3.7410681098
 O         -0.9078970519       -6.5231910694        4.4719128531
 H         -0.0178627503       -6.5064050316        4.0883897113
 H         -0.9375861888       -5.8776575695        5.1907119002
 O          4.0500748253       -1.2746095669        4.3871543015
 H          3.7718855308       -1.0535002941        5.2818907145
 H          3.2115099850       -1.4136238181        3.8885133698
 O          1.7408311878        7.4662592663       -1.4083852743
 H          2.3494913658        8.2032173607       -1.4395114608
 H          1.9188585905        6.9112022817       -2.2146250639
 O          5.5190404667        3.3755871156       -3.0920797922
 H          5.1573623218        2.5441774241       -3.4560681991
 H          6.3768596456        3.1045913804       -2.6983853101
 O          4.9954680547        3.2401665942        3.0522261452
 H          4.2991817727        2.8692235082        3.6159261209
 H          4.6710452620        4.1043940801        2.7519347856
 O          4.0286481784        5.5845485983        1.8182442964
 H          4.6629220005        5.5954450366        1.0926398209
 H          3.1476242717        5.6117250558        1.3984727877
 O         -6.2289115700        4.7514113301        2.8417337676
 H         -6.1064700241        5.2006873198        1.9955193610
 H         -5.3763190563        4.7808109160        3.2902732236
 O         -5.5813956144        3.5586822371       -1.3915842952
 H         -5.5649754171        4.2949317648       -0.7555585476
 H         -5.2191604113        3.9086388160       -2.2186277851
 O         -1.9293350407        1.6141535295        2.4442734022
 H         -2.1389036407        1.0302688930        1.6831627025
 H         -2.7043360418        1.6401024495        3.0184885054
 O         -4.1330056788        1.9413610468        4.1889127358
 H         -4.1367867961        2.9055589126        4.0876341165
 H         -4.8770964491        1.7068485531        4.7604980121
 O          7.2664635031       -4.2087471280       -0.5677868438
 H          6.7317776757       -4.4069189911        0.2283457001
 H          7.5842924139       -5.0477601659       -0.9018568207
 O         -1.5908240322       -0.2488864718       -4.7524534871
 H         -1.0012436219       -0.9958551992       -4.5411919498
 H         -2.4511917256       -0.6345180084       -4.9448104429
 O         -2.7215095594       -2.9340109107       -4.4121271116
 H         -2.4412596362       -3.7538630315       -3.9881297618
 H         -2.2867179999       -2.9029966053       -5.2810176108
 O          4.7030755235       -5.2614000489       -2.7806826199
 H          5.1391191569       -4.4072360198       -2.9106409292
 H          4.5197678458       -5.3232112242       -1.8261076562
 O         -1.2617544364        3.6019435647       -6.2303815513
 H         -1.6713611751        3.2904697027       -5.4027638397
 H         -1.0456214547        2.7783438153       -6.7036871501
 O          5.3698845611        4.5642808846       -0.4272319605
 H          5.4690624806        4.4397315526       -1.3792450681
 H          5.9911698049        3.9441184622       -0.0133639740
 O         -0.0843675933       -4.7585893753       -5.1994105147
 H         -0.7471977217       -5.1331026694       -4.5897388838
 H          0.7539934268       -5.1501272245       -4.9204423264
 O          3.9619067338       -5.0850763601       -0.1852529723
 H          4.4550189429       -4.9532351445        0.6392067820
 H          3.1285555635       -5.5468511319        0.0476512393
 O          4.1858746099        4.8976434817       -5.0712439306
 H          3.6673972444        5.5118242034       -4.5241309757
 H          4.8615577414        4.5187258116       -4.4894818847
 O         -3.5951658687        1.6745773315       -1.5275345641
 H         -2.9046087596        2.3422204588       -1.6953424576
 H         -4.4161643285        2.1825420404       -1.3990743962
 O         -2.1285381104        2.3521597027       -3.9561294647
 H         -1.2479095427        2.5374306838       -3.5790626337
 H         -2.1057600665        1.4176499713       -4.2098593735
 O          0.5432847314       -4.2175709763       -1.9372252236
 H          0.9469451929       -3.8863713720       -1.1111687905
 H          0.3250540615       -3.4555879290       -2.4957127708
 O          7.1775033444       -0.3680090600       -1.8245010807
 H          7.5859140901       -0.7499508234       -1.0174959967
 H          6.8512732500       -1.1355166822       -2.3239773619
 O         -7.0016533599       -1.5286449550       -2.8054444941
 H         -6.4884930966       -1.9835755681       -3.5004222692
 H         -7.4524182700       -2.2088056528       -2.3001469721
 O          1.9774737612        1.6599994143       -7.4064909878
 H          2.1725435582        2.1923942497       -6.5926133104
 H          2.0180442681        2.2583135544       -8.1512428560
 O          0.5804693121        5.4038436917       -5.5931739930
 H          1.0229817657        5.6910676591       -6.3901516055
 H         -0.0543975889        4.6945969308       -5.8603121380
 O          1.4186536362        3.5731954368        5.7039500903
 H          1.9319850144        4.3621723872        5.4863256148
 H          0.5254251844        3.7324185623        5.3354092724
 O         -3.1122172036       -5.9788053938        3.0417881122
 H         -3.0025215561       -6.5964202491        2.3061628877
 H         -2.3807160128       -6.2124561423        3.6512264676
 O          3.5000154130       -0.6272581090       -7.2760876179
 H          3.2115685840        0.2903145394       -7.3948647092
 H          4.0715540235       -0.6555229182       -6.5003151692
 O         -5.4026490950       -2.6650664974       -4.7342075798
 H         -5.4052737713       -1.8947432670       -5.3139190144
 H         -4.4551560388       -2.8010089932       -4.5336283452
 O         -3.3169270892       -2.6944165350        5.0681198110
 H         -2.9519304254       -3.4614411042        5.5366534290
 H         -4.2391915693       -2.8744190244        4.8298094439
 O         -1.1604414620        5.3550265974       -3.4223571296
 H         -0.5386299835        4.5885224335       -3.4672143903
 H         -1.0452199470        5.8134370122       -4.2571859888
 O         -4.5345957810       -0.1412594057       -5.7461126468
 H         -3.9225316229       -0.3235692698       -6.5054694397
 H         -5.1696357866        0.4985493204       -6.0656797585
 O         -7.8373685773        2.1820492478       -0.5341461454
 H         -7.2321636476        2.8298045784       -0.9231832161
 H         -7.7518125022        2.2753415740        0.4324340141
 O          3.6129255020       -4.4149718315        4.4770879333
 H          3.0683589786       -3.8834203561        5.0964976750
 H          4.5257880113       -4.2909142500        4.7440006758
 O         -3.5155372902        6.9757453264        2.2684439416
 H         -4.2182154997        6.7642546333        1.6308844327
 H         -3.5899925388        6.3132826633        2.9724899413
 O          2.8853713626       -0.1543171828        6.6864879390
 H          1.9886532618        0.2694004314        6.7599106446
 H          3.3334290655        0.0377169080        7.5103157255
 O          0.6617592384        1.2290615055        6.9305344214
 H         -0.0683508923        1.1765895396        6.2693077152
 H          1.0024432696        2.1284061549        6.8289632100
 O         -3.4195143178       -0.2482911389        6.2886387614
 H         -4.3463132506       -0.0021496556        6.1557632621
 H         -3.3158009547       -1.1153364174        5.8502235397
 O         -5.9980726699        0.4464102226        5.4980494844
 H         -6.7021784962        0.6371275203        6.1164841099
 H         -6.4473485030        0.1459400760        4.6627233028
 O         -4.1501600708       -0.4861026814       -3.0229189625
 H         -4.3921867573       -0.2871258121       -3.9367589117
 H         -4.1087121952        0.3514451569       -2.5240514174
 O         -5.0291218521        5.5772654879        0.4287567103
 H         -4.3745078338        4.8837337199        0.6750635181
 H         -4.6408899762        6.0445017263       -0.3403048995
 O         -2.3488777927       -7.2076018858        0.6552884267
 H         -1.6868004706       -7.3574964024       -0.0363176905
 H         -3.0387474385       -6.6567639290        0.2362725676
 O          1.6625364320       -1.5237960800        3.2601393634
 H          1.0756582318       -2.2904168707        3.3979753188
 H          1.1596427013       -0.7027473456        3.3782336123
 O         -2.8054411630       -0.6183565773       -7.6696837552
 H         -2.1083586041        0.0578952738       -7.6509369198
 H         -2.3566283123       -1.4612097513       -7.5114433447
 O         -5.5801852626       -2.6574948692        3.6110065041
 H         -5.5311246349       -3.3472715178        2.9115510478
 H         -6.4865842297       -2.3457308468        3.6346183989
 O         -5.3308244405       -4.6916762811        1.8896279001
 H         -4.8531545446       -4.8124297234        1.0459031766
 H         -4.8757959589       -5.2849774038        2.4996030232
 O         -4.5056215187       -5.1172822014       -3.0685329393
 H         -5.0767731886       -5.0888365120       -3.8370364553
 H         -4.5275105943       -4.2056785448       -2.6972487587
 O          1.1508979917       -1.4349122415       -6.3056243425
 H          1.6275690192       -2.1802614328       -5.8879208024
 H          1.8279059955       -1.0761437274       -6.9130201445
 O          5.9742003504       -4.7919494349        1.7611918443
 H          5.9383097399       -4.0793833598        2.4365826749
 H          6.1772983141       -5.5990207444        2.2335639257
 O          5.9481605266       -2.7119742115       -2.4664973465
 H          6.5525719255       -3.2319374816       -1.9088780074
 H          5.1943678581       -2.5136327570       -1.8664534212
