  192
       -320.55001537
 H          0.6016370879        2.1281067392       -1.1299659341
 C          1.3256796978        1.6145461249       -0.4982461659
 H          2.3014812868        2.0846946694       -0.6199536482
 C          1.4204138564        0.1452117079       -0.8898981279
 H          2.1553604292       -0.3496151275       -0.2620346929
 H          1.7188917470        0.0673878288       -1.9334834178
 O          0.8665322013        1.7716989395        0.8323886244
 H          1.4981848824        1.2990478216        1.4232634190
 N          0.1139801299       -0.4865777734       -0.6732376444
 H         -0.0487896156       -0.5915097866        0.3625103155
 H          0.0124991359       -1.4194163079       -1.1282190599
 H         -0.6151890585        0.1435933296       -1.0818786768
 O          0.8486477540       -1.0914014075       -4.6441204097
 H          1.2820425735       -1.8031098500       -4.1320524540
 H         -0.0799362729       -1.3461587871       -4.7345457126
 O          5.1974922889        2.1713025927        4.5936828420
 H          5.2467662260        2.1858791870        3.6153006609
 H          5.2358851233        3.0828219097        4.8833233795
 O          1.6243346233       -2.8100718142        1.4391320445
 H          0.8060146779       -3.2784725360        1.1905205807
 H          1.9459658558       -3.2041721443        2.2854891480
 O         -5.3469677805       -2.2097595744       -0.7692127650
 H         -5.2454696861       -3.1309911099       -0.4843079305
 H         -5.1647191644       -1.6542651566        0.0113622182
 O         -1.8805747432       -1.4222360239       -3.9907273882
 H         -2.7226761618       -1.8832738208       -3.8218808941
 H         -2.1430456329       -0.4989841649       -4.1920077427
 O         -0.7961509162       -3.6253486784        0.6281666760
 H         -1.1561435768       -4.3381321610        0.1005377865
 H         -1.2993932676       -2.8258336614        0.4022225066
 O          5.4436049427       -0.7668258259       -3.5132597233
 H          4.6659272931       -0.3412472093       -3.9236539459
 H          5.2970329415       -1.7259857378       -3.5883516238
 O         -1.8691860491       -1.7470099695        3.4668856919
 H         -2.4520550876       -0.9665153404        3.5344829125
 H         -2.3923425083       -2.4222356153        3.0095705217
 O         -1.9293401179        1.2672867781        1.0641278566
 H         -0.9744997419        1.3698719325        1.2001999337
 H         -2.0738244832        0.3752635702        0.6910057154
 O          5.3833879565       -3.9266801345       -0.7149877046
 H          5.1852668111       -4.4846498908        0.0505981822
 H          5.9882005767       -3.2393107187       -0.3793332062
 O         -1.4749356343        1.2022570121       -1.9675421171
 H         -1.6375175819        2.1627236426       -1.8547673621
 H         -2.3421284847        0.7474244281       -2.0560252469
 O          4.4596270947       -4.4112126949        1.8584199455
 H          3.8311066627       -4.7529245858        2.5020787550
 H          4.1880254441       -3.4764344011        1.7216244282
 O          2.0625376687       -2.9887847561       -3.1389662736
 H          2.8531267531       -3.3179581531       -3.5807120041
 H          2.3772009101       -2.7591680922       -2.2339862377
 O         -2.5731311909       -4.4093891664       -1.8963544005
 H         -1.7905611390       -3.8251071464       -1.8889109864
 H         -3.1467157969       -4.0421363216       -2.5828856576
 O          0.2578370725        1.5050043453       -3.9887751799
 H         -0.3756875577        1.3777773197       -3.2549258578
 H          0.4780877812        0.6115244452       -4.2967049531
 O          6.7931790321        1.5033450381       -2.5790825915
 H          7.4463073387        1.8459617196       -3.1893726461
 H          6.4634251198        0.6723067063       -2.9606557626
 O         -0.7476058787        5.1900582645        2.4102432264
 H          0.1049118052        4.9599040404        1.9757912442
 H         -0.6850554330        6.1088082338        2.6703942073
 O          0.8589177350        0.1337857474        5.9378281958
 H          1.7646692652        0.2477113044        5.5737904202
 H          0.9091582388        0.2968495502        6.8793207712
 O         -4.4396900540       -4.7081790166       -0.0483424440
 H         -3.7009505739       -4.6449333717       -0.7039153363
 H         -4.7669216387       -5.6063499761       -0.0891483624
 O         -1.6218685089        3.8746047868       -1.8783836323
 H         -1.9443640989        4.0350354723       -0.9614308556
 H         -0.7413828359        4.2837417203       -1.9261642728
 O         -2.3375951400       -1.3142424617        0.1887505269
 H         -2.8893138646       -1.1261010884       -0.5921192084
 H         -2.8965441419       -1.7980949409        0.8265654635
 O         -4.6719994653        1.8796273041       -0.4262780946
 H         -4.5569614709        2.1941545106        0.4870311912
 H         -5.6298341590        1.9502362337       -0.6390534727
 O          0.3993804134       -2.4370150299        4.9354295544
 H         -0.4514315643       -2.3486405117        4.4838007226
 H          0.5609836787       -1.5734678665        5.3458530137
 O          6.7771089007       -3.3966091884        2.9369360734
 H          5.9716128294       -3.8695938122        2.6404520666
 H          7.3867653820       -4.0632232645        3.2522349058
 O         -3.6774874957       -2.9759981672        1.8930146532
 H         -4.4527442771       -2.3984430733        1.9922915283
 H         -3.9428550835       -3.7354450166        1.3506677844
 O          6.7618046257       -1.9879768734        0.6176238950
 H          7.0508091868       -2.3654471795        1.4671118630
 H          7.0586806079       -1.0651681265        0.5653268232
 O          3.0714635080       -2.5186244789       -0.7400375727
 H          2.5653573516       -2.6476253968        0.0961685207
 H          3.8361588226       -3.1241956467       -0.7043715032
 O          3.1682309688        0.4541246161       -4.2911242349
 H          2.4299338819       -0.0780335282       -4.6162423408
 H          3.0378821396        1.3457369061       -4.6220859538
 O          0.0720887466       -0.7351607877        1.9897661714
 H          0.7887759309       -1.4014132980        1.9624692184
 H         -0.6669401022       -1.1696064329        2.4747022206
 O         -5.2338189598       -0.8272910753        1.5699039432
 H         -4.6846492087       -0.2487491136        2.1278612264
 H         -6.1584613331       -0.5492968995        1.6892469355
 O         -7.5826819224       -0.6412245602       -1.0375077979
 H         -7.8711610857       -0.5383828247       -0.1164941064
 H         -6.8461769545       -1.2783491828       -0.9957238585
 O         -0.1649792844        1.4181924404        3.6866441625
 H          0.0596338891        1.0688281001        4.5593313002
 H         -0.0063479590        0.6852329530        3.0688285128
 O          4.2284032844        2.2926165263       -1.7616013355
 H          5.1153797692        2.3725184975       -2.1393869756
 H          4.1839287058        1.3603078060       -1.4707746202
 O          0.9172130642        4.8861059188       -1.7356028703
 H          1.0740467932        5.7802855974       -2.0395582519
 H          1.4328847989        4.2932643871       -2.3551884277
 O          4.1014841730        4.0520116531        0.4169921733
 H          4.0828532700        3.5968625725       -0.4408364649
 H          3.1871502874        4.2905042622        0.6479338414
 O          4.5212620336       -1.8810185061        4.3492827884
 H          4.0621025994       -1.0509880242        4.6292081805
 H          5.4162843807       -1.8616497586        4.6895018366
 O         -2.5884850373        1.1109133869       -4.6308997448
 H         -1.7562414640        1.5682255957       -4.7927422836
 H         -3.1071379925        1.6776119299       -4.0343341317
 O          2.1903358511        3.2767103624       -3.3417659471
 H          1.5150455616        2.6126204001       -3.5929984101
 H          2.8956054897        2.8294064967       -2.8428151814
 O          4.8807535728       -3.4815881720       -3.4090634887
 H          5.0735051947       -3.7033421171       -2.4804769247
 H          5.4093843934       -4.0745409519       -3.9443956979
 O         -7.8184244057       -0.0097102788        1.6673302546
 H         -7.6679459226        0.9728418161        1.6539584839
 H         -8.5214779866       -0.1658292793        2.2974956162
 O          6.6277889984        0.7040695183        0.1725855533
 H          5.8068864644        0.3166859234       -0.2115230460
 H          7.0281584432        1.1761427218       -0.5664123190
 O         -2.4045946786        3.9678924892        0.6222255529
 H         -1.8359946397        4.4437451834        1.2518607276
 H         -2.2757945599        3.0189647120        0.8063053793
 O          1.3716352251        4.4305956759        0.9315153432
 H          1.1583025121        4.6573113242        0.0061309720
 H          1.1502756452        3.4825266415        1.0293680703
 O         -6.3226592069        2.3627781811       -3.8756415700
 H         -5.4259750308        2.6482970279       -3.6032758476
 H         -6.5249457557        2.8114204287       -4.6964768572
 O          3.2213581533        0.3836215658        4.7270805922
 H          3.9075980790        1.0720850033        4.8470288704
 H          2.9388931344        0.4709589818        3.7862252863
 O          4.5072703807       -0.2962213939       -1.0621235742
 H          4.9106460654       -0.5099977154       -1.9308109833
 H          3.9804503412       -1.0875004128       -0.8275936943
 O         -4.2401737060       -2.6454341920       -3.2761123191
 H         -4.8635202043       -2.2255665377       -3.8760911405
 H         -4.5590731687       -2.4028025124       -2.3859174915
 O         -7.1810080108        2.0298203586       -1.2393255247
 H         -7.4276258138        1.0811818283       -1.2237017977
 H         -7.1044436468        2.2710562700       -2.1737254518
 O         -7.3052624802        2.5637302718        1.5279913933
 H         -7.3778178250        2.6970048327        0.5729867065
 H         -6.4089254210        2.8269575464        1.7899719827
 O         -3.8914119812        2.8287343135       -2.8542678931
 H         -4.1189811258        2.5328270416       -1.9483816625
 H         -3.1767255120        3.4721886583       -2.7345229921
 O         -2.3258764946        3.0282352926        3.5837611635
 H         -1.9232010021        3.8870817691        3.4172223051
 H         -1.5586317159        2.4188678717        3.6321122898
 O          5.0522507090        2.0970672926        1.9020372066
 H          4.7738779121        2.9070285617        1.4104169909
 H          5.7383434172        1.6641103371        1.3595911066
 O         -4.5919744207        3.1528946202        1.9941274214
 H         -3.9228907808        2.9909770036        2.6848445297
 H         -4.2090509613        3.8767707865        1.4787941662
 O         -5.8911119972       -0.3341410901       -3.4483927902
 H         -6.0436116299        0.5722278182       -3.7630781146
 H         -6.6332707552       -0.5366199851       -2.8680577752
 O         -0.4871298118       -2.6663529238       -2.1353991607
 H          0.2959866396       -3.0423154445       -2.5589701856
 H         -0.9751466038       -2.1532410134       -2.8243980728
 O          2.4724543780       -3.6905727123        3.7766825615
 H          1.6891632564       -3.3778195704        4.2755287786
 H          3.2031968779       -3.1404024706        4.0973254520
 O          4.2740509868       -1.7230663358        1.6924424439
 H          5.1411596035       -1.6685183418        1.2481657392
 H          4.4517578233       -1.7600895017        2.6558814675
 O          2.9029340563        0.5541837099        2.0786137747
 H          3.6691809775        1.1670190793        1.9878687484
 H          3.2538540708       -0.3240994526        1.8300216751
 O         -3.4121869837        0.4679338259        3.1508974800
 H         -2.8494574798        0.8669066585        2.4465812396
 H         -3.4541454852        1.1276938957        3.8461158785
 O         -3.7315820103       -0.1476405889       -1.8011579377
 H         -4.1161028152        0.4982851468       -1.1743998988
 H         -4.4117323588       -0.2710696336       -2.4911546959
