  459
       -779.21106818
 O          2.4598749375       -7.0296110104       -1.4830650475
 H          2.6273745060       -6.8067172103       -2.4096951944
 H          1.5145373028       -7.2009871708       -1.4281747448
 O          0.5261620713       -0.2961096199       -6.5718095968
 H          0.0190126902        0.3662745073       -7.0480161823
 H          0.3953813769       -0.0729816722       -5.6210210024
 O          0.4385054298       -3.0335195475       -6.2352062295
 H          0.4385678135       -2.0974866568       -6.4992003196
 H          1.3597765522       -3.2424136084       -6.0243856652
 O          3.8947587358       -0.4020816748        1.4269788014
 H          4.8010058896       -0.7344726394        1.3833086138
 H          3.8344738656        0.3209244814        0.7880449010
 O          0.3100943346        0.3680147399       -3.9842898772
 H          1.1777261496        0.4252617946       -3.5534591305
 H         -0.0858501346        1.2554162255       -3.9019402184
 O          0.4238914840       -2.9726968343       -3.1934384265
 H          0.7811917804       -2.1951759100       -3.6405237320
 H          1.1609061157       -3.3043926498       -2.6320996963
 O         -4.2529076922        0.0608203467       -3.3090145503
 H         -4.7245852292        0.0195848913       -4.1613645714
 H         -4.3674536337        0.9404423003       -2.9276455015
 O         -0.4387675295        2.8349545040       -3.0386159295
 H         -0.8936760908        2.2695313525       -2.3788867740
 H         -1.1285435684        3.4975580993       -3.2471170244
 O         -4.4994557918       -3.0592124573        0.2061679469
 H         -4.4169407991       -2.9345416577       -0.7519335886
 H         -3.7257792544       -3.5490677447        0.5212972327
 O          2.4019826487       -3.9911357391       -1.7603092002
 H          2.5786402458       -4.7388944219       -2.3671538668
 H          2.0643485730       -4.3502231366       -0.9057880857
 O          2.0594852650       -2.8156810378        2.5436762730
 H          2.9674046054       -2.5141941447        2.3685760902
 H          1.8298064405       -3.3821158309        1.7763054381
 O         -0.6344130741       -2.4905519738        5.0199424028
 H         -0.7529810994       -2.4556168273        4.0522670493
 H         -1.4229735573       -2.9676186189        5.3365348145
 O         -5.1547828521       -5.9961906945        2.7457570557
 H         -4.4157284532       -6.3950260659        3.2154453440
 H         -4.9893229151       -5.0340269273        2.8250912874
 O         -2.6881211121       -0.9959363840       -0.6191297687
 H         -2.3156242698       -1.7647487905       -1.0716168462
 H         -2.3354357558       -0.1923272355       -1.0593074745
 O         -2.8960033706       -1.4822549852        3.8477409020
 H         -2.9366236732       -0.8977106571        3.0683625051
 H         -3.0252203084       -0.9131768889        4.6154849121
 O         -1.3282419965        4.1468501848       -0.6543191243
 H         -2.2368756481        4.1160868825       -0.3139960476
 H         -0.7480276225        4.1211247998        0.1276791075
 O         -0.3771158683        2.5468113243       -6.4525415940
 H         -0.7309000134        3.4563196622       -6.3667769769
 H          0.5222028601        2.6020686964       -6.0895190770
 O          4.3085482248        1.4947382812       -0.5969199487
 H          5.2119540462        1.5687002011       -0.2194966304
 H          4.1237597740        2.3480385856       -1.0283613755
 O          1.6933435912       -4.6740465369        0.6638533901
 H          0.9081625084       -5.2659663972        0.6566649691
 H          2.4564345761       -5.1924001977        1.0030814032
 O         -1.5194297694        2.2100923700        1.2421601170
 H         -0.6240781051        1.8575032112        1.1161689305
 H         -2.0534354401        1.4992522948        1.6541923869
 O         -5.3304759762       -0.4487999470       -0.7770473173
 H         -4.3990695776       -0.7462729558       -0.8195998773
 H         -5.3029541214        0.4404793920       -0.3678156188
 O          0.5902728161        2.7780774414        3.4402305724
 H         -0.1417775312        2.1105720751        3.4626008513
 H          1.3933797909        2.3548929042        3.0933305930
 O          4.9923241253       -3.1342543646        4.8203228016
 H          4.2518600028       -3.7428406470        4.6670746481
 H          5.7460306086       -3.5028707707        4.3358908498
 O          6.5223336585       -1.1736174247        0.6870337351
 H          7.3212901235       -1.6685117794        0.9377437687
 H          6.5768035608       -1.1446487506       -0.2910295159
 O          7.1253674903       -0.9693173378       -1.8899339735
 H          7.7705133658       -0.2431283084       -1.9207529997
 H          7.6241370581       -1.8129026577       -1.9777471796
 O          5.5201693364        0.2587911225       -6.9815600920
 H          5.9901448720       -0.0425691355       -6.1794907144
 H          5.7054331085        1.2046189826       -7.0383164930
 O         -7.9937708815        2.0613377176       -1.3465274932
 H         -7.7597495664        1.2932165524       -1.9095860457
 H         -7.8554475729        1.7470791405       -0.4268074489
 O         -2.1492560145        1.1526328440       -5.0329448047
 H         -2.8861309396        1.7612128990       -4.8746584300
 H         -1.4962008949        1.6525820644       -5.5666026083
 O         -4.2738475311       -2.5413826149       -2.4868362716
 H         -3.3348017666       -2.8072092053       -2.4699828342
 H         -4.2923312251       -1.6117990854       -2.7758119625
 O          5.9514461724       -4.4699885979       -2.5214068272
 H          5.4537761641       -3.8481886602       -1.9502690717
 H          5.8357940876       -4.1364032794       -3.4249544764
 O          9.3507038982        0.4670696895        0.8388982051
 H          9.9506613232        1.1683394753        1.1610926995
 H          8.7403849233        0.3105740068        1.5890955526
 O         -0.2187067453        6.1850734875       -1.8527352766
 H         -0.9069974298        6.8303174057       -2.0153964737
 H         -0.6830181669        5.4109533905       -1.4342496232
 O          0.4859259000       -0.6225457183        2.7843954508
 H          1.2236596409       -0.1928907223        3.2740068071
 H          0.7921802987       -1.5384033105        2.6840313563
 O         -3.1269694751        0.1442368279        1.7158030135
 H         -3.9526544931        0.6223291869        1.5365209348
 H         -2.9673750310       -0.4240698264        0.9424431230
 O         -5.6652549288       -1.2343585241        1.9237444414
 H         -5.5497542118       -1.1240019574        0.9678388797
 H         -6.6166326469       -1.3515389536        2.1306918570
 O          5.1710541369        1.9350885766        2.7582180877
 H          5.2141309080        1.0854705784        3.2181010767
 H          4.2510337996        2.0132787044        2.4181053266
 O          2.7157916375        2.2632897042        1.8499139315
 H          2.8489978928        3.1493810151        1.4679650205
 H          2.1343862670        1.7710142075        1.2413394530
 O         -6.9427373475       -5.3752183128       -1.2041570974
 H         -6.1498199828       -5.7965122794       -0.8256345556
 H         -6.6547562557       -4.9964041081       -2.0564057187
 O          2.5953717260       -1.2941481709       -3.8756561741
 H          2.7575640755       -0.6669262831       -4.6094812146
 H          3.2527613355       -1.0700722265       -3.1948532949
 O         -0.0736443996        3.2812050048        5.9834176055
 H          0.3428578271        2.6302344972        6.5544664900
 H          0.2859505663        3.1147934046        5.0839749986
 O          4.6034565126       -2.9031579433       -0.8064984828
 H          4.5591308253       -2.0052973848       -1.2062441274
 H          3.7567236252       -3.3253307161       -1.0789878376
 O          5.8902483906        2.8884514316       -6.0105839387
 H          6.0419184424        3.8223132395       -5.7878732063
 H          5.3614359369        2.5456287989       -5.2629382437
 O          6.6324687668        1.5119824105        0.6581861974
 H          6.7742370328        0.5444049021        0.7334090190
 H          6.1689398911        1.7531861875        1.5005219652
 O          2.7258569066        0.2417163758        3.7820328748
 H          2.9351487424       -0.3685906279        4.5183355047
 H          3.2365294478       -0.0407388636        2.9949875789
 O         -3.4798329601        0.2624806136        6.0018177902
 H         -3.4067436029        1.2265651732        5.8835332558
 H         -2.6042871891        0.0265263275        6.3512538949
 O         -1.8363110351       -3.4370533083       -1.7535482646
 H         -1.1209715941       -3.2511354197       -2.3863511065
 H         -2.0827272307       -4.3736961024       -1.8330377816
 O          5.0237780661       -6.3757169589       -0.6778676286
 H          5.3234979298       -5.9053697065       -1.4715864562
 H          4.1680242691       -6.7644475677       -0.9132925101
 O         -1.7896564475       -1.0904401512       -3.2540668617
 H         -2.5420232817       -0.4947760278       -3.4109767069
 H         -1.0051900872       -0.5781656683       -3.5213239475
 O          5.7958809262       -2.9936207915       -4.8588625223
 H          5.6823670763       -2.0666562461       -4.6145581144
 H          6.7104075353       -3.0654738574       -5.1518337667
 O         -1.9591318284        1.4434983347       -1.3412449872
 H         -2.8001539972        1.8134818327       -1.6547921998
 H         -1.8044094795        1.8624121154       -0.4672677058
 O          3.0944653371       -3.4727551638       -5.2879097527
 H          2.9022522945       -2.7125794878       -4.6864997343
 H          4.0408019968       -3.4175962919       -5.4655759108
 O         -3.6134127621       -5.0420947628       -4.6654138697
 H         -3.3083933677       -5.6603484324       -5.3287688709
 H         -3.0595166725       -4.2289630885       -4.7840622152
 O         -0.0068875617       -5.2698664084       -4.4636859829
 H         -0.0530530984       -5.0960214612       -5.4061497299
 H          0.0743000794       -4.3758998731       -4.0524251313
 O         -2.5693183934       -4.7032148539        1.2654712621
 H         -2.8023811272       -5.1398758594        2.1117125892
 H         -1.9708873077       -3.9786874323        1.5852263829
 O          6.3618241028        5.0412455636       -4.3975159292
 H          5.4002154729        5.1769429959       -4.3966490548
 H          6.5576103776        4.5222437477       -3.6073657816
 O          2.6066675293       -5.6751450216       -3.8567002250
 H          1.6701164279       -5.7348786560       -4.1213526615
 H          2.9535077974       -4.9516415226       -4.4200474026
 O          3.9326625925       -5.6093282628        1.7380139850
 H          4.4060632541       -6.0247102893        1.0012144576
 H          4.2787268250       -4.6866268992        1.7945924295
 O         -6.6493998213        1.7651266303       -4.8261561459
 H         -6.8541583480        1.2008063565       -4.0495078982
 H         -6.4328268173        1.1143914818       -5.5089955269
 O         -5.4816118424       -0.5191559601       -5.6655818454
 H         -4.5985550498       -0.6613094594       -6.1146718010
 H         -5.9182992081       -1.3698032704       -5.6276047898
 O          9.0208018935       -2.2705191283        0.6261443856
 H          9.3165974448       -2.5488993012        1.5015590902
 H          9.3782604282       -1.3766071799        0.5062365239
 O          4.5263600422       -0.6329693142       -2.1334015754
 H          5.4889621746       -0.6634063039       -2.2852461176
 H          4.3537904993        0.1733613725       -1.5942998552
 O          4.6045790838       -3.0442235228        1.8765185439
 H          4.6553418435       -2.8292279485        0.9255684242
 H          5.4981603847       -2.9896578550        2.2481374615
 O         -7.0761146489        0.0520828665       -2.7983749529
 H         -7.4858318944       -0.7940988586       -3.0608472596
 H         -6.2809304777       -0.1625737629       -2.2710458651
 O         -4.6458201369       -6.1428986944        0.0735837667
 H         -5.0117850108       -6.3327862748        0.9575197652
 H         -3.8970755601       -5.5628854997        0.2806072065
 O          3.0965779845        0.2997150820       -5.9721824211
 H          3.9359573006        0.2007004350       -6.4799710773
 H          2.3448123252        0.0023501483       -6.5113969367
 O         -2.9577497315       -5.8853535896       -2.1799724141
 H         -3.3069279287       -5.6409311139       -3.0600739065
 H         -3.6941901067       -6.1481718683       -1.6166538912
 O         -3.7808966804        3.8623971404        0.5500674318
 H         -3.6687305705        3.2820262950        1.3196671978
 H         -4.1058810471        4.7132967594        0.8831051873
 O         -0.7603347490       -3.2233432496        2.3715879664
 H         -0.2661137315       -2.8722423799        1.5929920617
 H         -0.3029589368       -4.0118765478        2.7127299160
 O          6.6602579209       -0.2700092288       -4.5625507207
 H          7.3316853000       -0.9828883386       -4.4981980191
 H          7.1972184837        0.5504535220       -4.5708327214
 O         -6.8936748225       -3.7607671771        0.9465704159
 H         -5.9434708129       -3.5272494836        0.8097990885
 H         -7.0649695452       -4.4277002242        0.2560322300
 O         -4.2509977911        2.9211573503       -4.8086503095
 H         -5.1437644730        2.5074499798       -4.7877119898
 H         -4.1912807898        3.4186624607       -5.6244397521
 O          0.9888786650        5.1480533705       -4.0166742732
 H          0.7569062763        4.2190402754       -3.8863366448
 H          0.5954398370        5.6176416177       -3.2540084548
 O         -5.3468516371        0.5566273106        3.8493413926
 H         -4.8323956894        0.2369436971        4.5976451874
 H         -5.3816496903       -0.1531167284        3.1721028151
 O          5.4758148683       -0.5684650632        3.9627506152
 H          5.2565135673       -1.4877179841        4.1957075550
 H          5.5251370111       -0.0591823870        4.7900141233
 O         -6.8850592868        3.8118156852        0.9401495951
 H         -7.8369199288        3.6055286485        1.0322225169
 H         -6.5933298709        4.0495486932        1.8386025540
 O         -6.0175582198       -4.2019144864       -3.4801017756
 H         -5.4765489478       -4.6839685064       -4.1158005257
 H         -5.3855006692       -3.5519231198       -3.0853446222
 O          3.2468891667        2.5232278856        5.0612645170
 H          3.0459199627        1.8216041234        4.4079178202
 H          3.1002251335        3.3841564229        4.6132284196
 O          4.9741116712        1.7638693668       -3.7052170584
 H          5.2848179965        0.8693346287       -3.8961568410
 H          4.0523202946        1.6861467203       -3.3614357285
 O          3.6419466086        4.7109017072       -4.2990439111
 H          2.7674488741        5.1382171939       -4.2572484408
 H          3.7917410663        4.3586993839       -3.3994297553
 O          9.9100923344        0.1277215521       -3.8907222508
 H          9.5062094795        0.7995110018       -4.4558083533
 H          9.6839150875        0.3992834927       -2.9912632981
 O          1.4768584737        3.4835888587       -1.2097546258
 H          0.6563056961        3.4493326762       -1.7349599699
 H          1.2189422193        3.7285380336       -0.3038392883
 O          8.0452951453        2.0468559358       -4.6694156310
 H          7.8748982301        2.5304168513       -3.8533935487
 H          7.4114468478        2.4113956035       -5.3261509826
 O         -3.0705345123       -0.8467545826       -6.5417394410
 H         -2.7354668035       -1.6643669614       -6.1327071327
 H         -2.6625375578       -0.1117197645       -6.0266951144
 O         -9.4699505898        3.1965454826        1.4638450890
 H         -9.5918204377        2.5333569119        2.1522449687
 H        -10.0053973812        2.9016164027        0.7116106386
 O          7.9185431821       -0.0733032105        3.0231684571
 H          7.0013616802       -0.3559679125        3.2185391565
 H          8.0899320730        0.6697416250        3.6608754809
 O          8.3388725851       -3.3152097505       -1.9244012568
 H          8.5946089416       -3.3195358312       -0.9899622241
 H          7.5864909741       -3.9333763783       -2.0246940783
 O          5.8165848830        5.2972858077       -0.1165932372
 H          6.0134036137        6.2303019777       -0.0429985113
 H          6.6168742725        4.8115457954        0.1862166544
 O         -2.0563316062       -2.9359226176       -5.0747947625
 H         -1.1796565536       -3.0441711648       -5.4802918133
 H         -1.9296869032       -2.2818850072       -4.3342146348
 O          2.1539396998        2.7046018402       -5.3585279309
 H          2.7972204313        3.4297861145       -5.2596109783
 H          2.6208929627        1.9206664485       -5.7125599451
 O         -3.8250532334        2.5971156070        3.0736993494
 H         -3.2078536785        2.5637545528        3.8284196433
 H         -4.3841472590        1.8009705467        3.1946549427
 O         -4.5736534162       -3.3539726141        3.1132140740
 H         -3.8103270692       -2.8756284302        3.5011640476
 H         -4.9114958294       -2.7109582074        2.4575061122
 O         -2.5773666192       -5.7221162508        3.7701541917
 H         -1.6141751172       -5.8064522936        3.7627654148
 H         -2.7671146110       -5.0351882043        4.4326700733
 O          0.4786900120        6.9742294789        1.8442467303
 H         -0.4431099605        7.0423766659        1.5401751139
 H          0.4503336949        6.8319738999        2.7984113413
 O         -4.7245175676       -2.2617447127        6.5540081221
 H         -4.4874638716       -1.3317308633        6.4502356469
 H         -5.5256146094       -2.4294813088        6.0297812215
 O         -2.7082093360        2.8644764340        5.5452189766
 H         -3.0725982669        3.7557236515        5.5785867972
 H         -1.7516259487        2.9596505395        5.7417193255
 O          3.9987924668        3.9627351775       -1.7210271675
 H          3.0465931990        4.0005974450       -1.4871350516
 H          4.4468188717        4.6337437127       -1.1903296431
 O         -4.8099255140        6.2468023329        1.6432556792
 H         -5.3562061768        6.3833233802        0.8590411976
 H         -5.3483882430        5.7669445076        2.2874670604
 O         -2.7996337291       -3.9174004705        5.8547856407
 H         -2.6240492360       -4.3855777571        6.6706997810
 H         -3.5349393968       -3.2844280374        6.0586682690
 O         -2.4848511946        4.5181049236       -3.4285401523
 H         -3.2452305848        3.9584141319       -3.6381761078
 H         -2.7493077038        5.1182913457       -2.7020857056
 O          0.2180734006        5.5947634564        4.2702334534
 H          0.1402491085        5.1966556535        5.1427871532
 H         -0.4197367396        5.1024182809        3.7123226918
 O          1.6908134137        0.9986000499        6.7169194191
 H          2.2065535647        0.1823773555        6.6673205824
 H          2.2096353112        1.6459183683        6.2038549230
 O         10.1570335236        3.4474141861       -1.0403462264
 H         10.5566888037        3.9039384125       -1.7798375743
 H          9.8288767977        2.5863953997       -1.3756953103
 O         -1.7222587753        4.4910091785        2.7268392579
 H         -1.7002219785        3.6032125405        2.3083954620
 H         -2.4492495188        4.5259105800        3.3638120864
 O         -7.3705684632        2.3514550741        4.2718813290
 H         -8.2074483110        1.9802649690        3.9757246009
 H         -6.7101525285        1.6423634228        4.1746428180
 O         -8.0718316413       -1.5741171291        2.9484915822
 H         -7.6565150244       -2.0436681240        3.7020506820
 H         -8.6818793504       -2.2080502260        2.5231005849
 O        -10.5661557527        2.2318952488       -0.9259965607
 H         -9.6178204068        2.2632938028       -1.2090491869
 H        -11.0789283906        2.7142004910       -1.5723866404
 O         -3.2547361483        6.2038300127       -1.4649514031
 H         -4.1830887335        6.0296480497       -1.2445628261
 H         -2.7831872772        6.2991599656       -0.6200506790
 O         -5.9262710153        5.6045352624       -0.8258595885
 H         -6.1689346713        5.3018266824       -1.7089053749
 H         -6.3086676711        4.9238964950       -0.2323290225
 O          8.6991350605        1.2308628354       -1.5850939078
 H          7.9281767741        1.8296111474       -1.6407664597
 H          8.8328174430        0.9660637252       -0.6406204633
 O         -8.0635743158       -2.3707698115       -3.4460369045
 H         -7.4041228274       -3.0819511810       -3.5200419553
 H         -8.8482355841       -2.7511799901       -3.0446032971
 O         -1.3229748223        1.0353372504        3.7846642714
 H         -1.2366958802        0.7967327835        4.7270660647
 H         -0.9555292895        0.2691665017        3.3162330429
 O          5.6724822662        4.5402024971        3.5070391513
 H          5.5010769259        3.6068300738        3.2959032252
 H          4.8356720351        4.8873777347        3.8312289202
 O          8.5577317945       -2.1655119916       -4.4454526035
 H          8.6379685897       -2.7047850854       -3.6451568158
 H          9.2401114071       -1.4720587049       -4.3577158385
 O          2.7575911400       -4.8114574648        4.0948825650
 H          3.2589239894       -5.3491334261        3.4657203551
 H          2.4737525501       -4.0092028803        3.5802088934
 O         -1.1641024288        5.0369726931       -5.7707730015
 H         -1.7497902147        4.9392125431       -4.9997968067
 H         -0.3101155758        5.2975507157       -5.3904463224
 O          2.0904661662        6.5271178136       -0.3650102822
 H          1.6735522452        6.9791524166        0.3800516534
 H          1.3587211817        6.3481014752       -0.9805543928
 O          6.8400891122       -4.4547557139        0.3900219521
 H          6.4932485863       -5.3240940571        0.1648019371
 H          6.2188611942       -3.8215914750        0.0073810873
 O         -0.3943065557       -6.7293766626       -2.0758297545
 H         -0.1273124583       -6.3087215179       -2.9042064704
 H         -1.3628986291       -6.6533203086       -2.0880872466
 O         -4.4198143367        2.4964036471       -1.7882539922
 H         -4.2776121675        2.9651410546       -0.9484773090
 H         -5.1011478866        3.0136212100       -2.2544666047
 O          9.3227381475       -2.2579966290        3.3818143538
 H          8.8485457872       -1.3885227867        3.2953971230
 H          9.9122159023       -2.1783404172        4.1300436893
 O        -11.1760661182       -0.8792702264        1.8057531468
 H        -11.0544454086       -0.7692277565        0.8407041777
 H        -10.9014652754       -1.7878798321        1.9802725456
 O         -9.7653811245       -3.3772648611        1.8029414101
 H         -9.7474052572       -3.5991076846        0.8512085998
 H         -9.4902964545       -4.1664925313        2.2805523268
 O         -2.1251546303        6.5379260166        1.0800827178
 H         -1.9509587394        5.7123881720        1.5900655441
 H         -2.9902256282        6.8321720524        1.3858841956
 O          8.0998966491        1.8930412023        4.7011246501
 H          7.2119694139        1.9172514099        5.0887762463
 H          8.2188752434        2.7249423451        4.2011078347
 O         -9.3708316308       -3.8787366548       -0.9099554070
 H         -8.9154204578       -3.0244354231       -0.9471846662
 H         -8.7023801269       -4.5594094992       -1.0600270819
 O          1.5710734581       -3.3638413411        6.2272525490
 H          1.9608019371       -4.0530796641        5.6793482467
 H          0.7420660519       -3.0927520350        5.7801578021
 O        -10.4455202334       -0.5514814594       -0.7859757245
 H        -10.5232475798        0.4126990533       -0.8566259817
 H         -9.5079528743       -0.7754481354       -0.7866154646
 O         -0.7941110695       -0.0638953419        6.1735661627
 H         -0.6474429280       -0.9553294255        5.7905875338
 H          0.0740325433        0.2734089105        6.4505923577
 O          0.6067003188        4.2945914872        1.2094523690
 H          0.6564878280        5.2420940485        1.4202389378
 H          0.5511451831        3.8080445943        2.0555577964
 O         -5.7894757934        4.2971742200        3.3875145517
 H         -6.4699122089        3.7578914354        3.8425927203
 H         -5.0509074763        3.6473099168        3.2245706491
 O          2.8466907514        4.8546107636        3.7920133281
 H          2.9583519752        4.8326745854        2.8231269583
 H          1.9358959305        5.1530070554        3.9595872015
 O          3.1710952509       -1.2953587622        5.9546935486
 H          3.9988875749       -1.7802694110        5.8712661317
 H          2.5028984745       -2.0091052798        6.1118554867
 O         -7.7442652317       -4.9983359578        3.1955155450
 H         -7.1087918271       -5.7200641964        3.2572110073
 H         -7.4411535361       -4.4939980374        2.4114781808
 O          8.3314819634        4.1277872310        3.1664012719
 H          8.2027524599        4.0521578188        2.2037955207
 H          7.4858827726        4.4907590491        3.4759972225
 O          7.0058855550       -3.6733811868        2.9863394470
 H          7.8534022344       -3.2522619769        3.1980112357
 H          7.1212780090       -4.0960696416        2.1147570720
 O          3.3920188963        4.7413238085        1.1119080756
 H          4.3288056312        4.9153202800        0.9514557878
 H          2.8844757647        5.3667640417        0.5477324588
 O         -6.6500767319       -3.0094186446        4.7118052462
 H         -7.1734739366       -3.8074938769        4.5263760423
 H         -5.8412472559       -3.1323078612        4.1522135687
 O         10.6076564938        2.6655243982        1.7356604176
 H         10.0861227516        3.1586892681        2.3791898516
 H         10.6495384917        3.1929112719        0.9294938977
 O          7.9270670558        3.8193125248        0.4880121119
 H          7.5574023819        2.9101256575        0.5171874403
 H          8.7080096584        3.7958487040       -0.0888354880
 O          5.5391009590        1.4424161682        5.8174354393
 H          5.4949694422        1.3999417960        6.7714918249
 H          4.7404469753        1.9489492402        5.5255458370
 O         -6.5769884174        3.7968569482       -2.8176417222
 H         -7.1416781407        3.2855021003       -2.2011031861
 H         -6.7703123065        3.4470398636       -3.6925047552
 O         -3.6189612989        5.3370467904        4.6527218704
 H         -4.5061822938        5.0964126549        4.3228222410
 H         -3.5783478261        6.2914693439        4.6935143854
 O         -5.3924977701        1.5457375825        0.9517836310
 H         -6.2383883158        1.1376524583        1.2203106517
 H         -5.6433301186        2.4667440154        0.7753619294
 O          6.7520595711        3.0313988890       -2.2429642509
 H          6.0222001390        2.5625932500       -2.7217360631
 H          6.3278404817        3.5723741181       -1.5713216558
 O         -9.4767736560        0.7170759520        3.0619467081
 H         -8.9412644043       -0.0508473696        3.3404512167
 H        -10.2686943671        0.2792766316        2.6659599672
 O         -0.4203310001       -6.2305168483        0.6411000717
 H         -0.4199924997       -6.5118593886       -0.2865899447
 H         -1.2499315068       -5.7244728323        0.7769337315
 O          0.2089070175       -5.5992652581        3.3428166354
 H          1.1056625586       -5.5034611606        3.7091749258
 H          0.2570400403       -6.1457945220        2.5499421307
 O          2.4641636667        1.6563336548       -2.9676620617
 H          2.2217861545        2.1010208350       -3.8126573845
 H          2.1491580416        2.2435782781       -2.2626551815
 O         -7.8685323348        0.7018536598        0.9447234876
 H         -7.9620043529       -0.2015718153        0.5896129115
 H         -8.4894359041        0.7791082428        1.6966173611
 O         -7.7662794160       -1.6476670185       -0.3455757971
 H         -6.9219298887       -1.3538830208       -0.7236111816
 H         -7.5286393933       -2.3892277491        0.2630937166
 O          0.7611451263        0.9244540685        0.7492029335
 H          0.6188115776        0.2330473612        1.4411872791
 H          0.9632900057        0.4440259872       -0.0667288399
 O          0.0929311190       -2.3433043241       -0.1545279786
 H         -0.6032436903       -2.7704806035       -0.6697145745
 H          0.3958567244       -1.6098009619       -0.6989231042
 O          1.6741087693       -0.3826807442       -1.3615400996
 H          2.3749937015       -1.0052749901       -1.1678761591
 H          2.0628987305        0.3575261634       -1.8487909182
