  120
       -203.63830010
 O          4.3525904941        1.9587770578        0.9065334828
 H          5.1862237647        2.3412373936        1.1769722019
 H          4.5078891474        0.9843240047        0.7784237663
 O         -0.8728380983       -0.9769876790       -0.8404317092
 H         -1.3807866342       -0.1544072335       -0.7568715733
 H         -0.3362968049       -1.0231838545       -0.0339069682
 O         -0.0410864867        2.0521641260        0.4981086093
 H          0.7489355937        1.9013341472        1.0514264125
 H         -0.7285299995        1.4673818980        0.8624310160
 O          0.8252023016        0.9472308880       -1.7494798706
 H          0.5302191580        1.5203595504       -1.0118178008
 H          1.4615324241        1.4263607463       -2.3089373585
 O          3.5446858654       -2.0684162072        2.9996416744
 H          2.9885125222       -2.6964469826        2.4884499974
 H          4.2714523362       -2.5799572638        3.3557369523
 O          0.6759167069       -1.1002079562        1.4612964163
 H          1.2802259432       -1.8569460931        1.4654643779
 H          1.2102931052       -0.2991985505        1.6124420771
 O         -0.3560329068       -2.6509349399       -3.2000658118
 H         -0.7016122988       -1.7365474064       -3.2707293470
 H          0.0443106885       -2.7115408333       -2.3114748910
 O         -0.8842706280       -0.0479580763       -3.5619862876
 H         -1.6124775037        0.5783704507       -3.7181903536
 H         -0.3740467643        0.2894884999       -2.7930774803
 O         -2.5343351325        1.2413240412       -0.6062427087
 H         -3.0188041345        1.5059620518        0.1974701805
 H         -2.1765257690        2.0468690274       -1.0279432099
 O          1.7995743277        1.3849713904        4.7691143774
 H          2.4021972848        1.7419383711        5.4200450073
 H          1.7689135239        0.3966566672        4.9135270901
 O          2.4172934268       -0.9642649624       -0.9476106584
 H          1.7465157442       -0.2538865710       -1.1075855832
 H          2.9315820574       -0.9823495273       -1.7851329994
 O          4.4677904873       -0.6465139466        0.7705660748
 H          4.1752891122       -1.0341918108        1.6101616272
 H          3.7298304191       -0.7916397293        0.1427605606
 O         -1.6291019947        0.4466090532        2.0190873134
 H         -1.9854358924       -0.2901807998        1.4848790059
 H         -2.1447578133        0.4172415431        2.8369226007
 O         -2.9804496983       -1.6566332945        0.9073254678
 H         -3.3407905098       -1.6054231936        0.0028471851
 H         -3.7128741812       -1.4231243111        1.5161248889
 O         -0.5544473573       -1.8340303234        3.7207723480
 H         -0.6387607305       -2.7793577349        3.5148627796
 H         -0.2847058269       -1.4179030856        2.8688029972
 O         -2.4089488895       -4.3274918391       -2.2318484893
 H         -2.0856244158       -4.3862009376       -1.3191332273
 H         -1.6825798455       -3.9442435626       -2.7478957721
 O         -0.5069308151       -4.3835403087        2.6964497192
 H         -0.8938004417       -5.2079202033        2.9884053203
 H         -0.8994316750       -4.1851634583        1.8000023463
 O         -3.3492801077       -1.8414947166       -1.8041660331
 H         -3.2684352791       -2.7869407807       -2.0372012321
 H         -2.4336143999       -1.5260808395       -1.7250648840
 O          1.1460724808       -3.2334561129       -0.9459283965
 H          1.5422992968       -2.3219273261       -0.8866731566
 H          1.7637406077       -3.7069032867       -1.5361000413
 O          3.0764552565       -3.8044919751       -2.7435337187
 H          3.8149812249       -3.2286044121       -2.5302919851
 H          2.6737202457       -3.4246659309       -3.5427147508
 O          2.3512974968        3.5809109314       -0.2488054751
 H          3.0956335531        3.0159036179       -0.0066157761
 H          1.9492781995        3.8808184820        0.5899171693
 O          3.5657976525       -0.8149934053       -3.3398319446
 H          2.9862848244       -1.2560369890       -3.9739265885
 H          3.4387175957        0.1353206462       -3.4767690902
 O         -4.1185153621        1.9942117517        1.4841284453
 H         -3.5781736249        2.6700357546        1.9796322556
 H         -4.9059009474        2.4462229004        1.1808396575
 O          1.8957147965       -3.6270714295        1.6134182774
 H          1.6714065017       -3.6730897694        0.6604254742
 H          1.1385256853       -4.0056634227        2.0916641846
 O          1.1011002236        4.3762870044        2.0586381221
 H          0.6350774666        3.7184735284        2.6061804397
 H          0.4033936065        4.8848207172        1.6317183406
 O          1.9969857123        1.1987634897        2.0419805708
 H          2.8386303330        1.5371095403        1.6944133707
 H          1.9960868328        1.3576698659        3.0005190235
 O          1.7694150676       -1.2099631558        4.9596948569
 H          0.8972206252       -1.4868630251        4.6100135039
 H          2.4222874873       -1.4875804264        4.2941893884
 O         -4.4420454282        0.5771002997       -2.3673477760
 H         -4.3101202276       -0.3843697852       -2.3939403994
 H         -3.8648308079        0.8523012736       -1.6221181552
 O         -2.6379185700        3.8413539663        2.5917319315
 H         -2.1879889021        4.2079184788        1.8016524529
 H         -1.9279109758        3.4617490867        3.1281719955
 O          2.4994289673        1.7577465019       -3.7376787655
 H          1.9762604362        1.3260520184       -4.4515256418
 H          2.1726206646        2.6622075446       -3.6630032879
 O         -2.8624804475        1.7546101041       -4.0594411001
 H         -3.5482068831        1.3230804708       -3.4684684128
 H         -3.2604900078        1.8429588154       -4.9243424316
 O          1.0317274214        0.2541696772       -5.3979131182
 H          0.2445969597        0.1844864258       -4.8122709439
 H          1.3909376479       -0.6413998913       -5.4217665744
 O          1.7015115085       -2.4735261930       -4.7905216165
 H          1.5479432914       -3.0400694931       -5.5467428196
 H          0.8826083904       -2.5491798556       -4.2146226203
 O         -4.6697016537       -0.4963334250        2.6172293400
 H         -4.5577602909        0.3890505674        2.2292866533
 H         -4.1580992991       -0.4882821670        3.4365882532
 O         -1.6402612755        3.3148340553       -2.1174166753
 H         -0.6869801926        3.3971056566       -2.3071721651
 H         -2.0463690236        2.9231672703       -2.9059558754
 O         -1.2032461457        4.4646572356        0.3903938610
 H         -0.7140626431        3.6110663131        0.4091492460
 H         -1.6155564588        4.4755263824       -0.4793179341
 O         -2.5939512217       -0.2705115210        4.5147509302
 H         -2.3505453722        0.1414178682        5.3432924942
 H         -1.8974498807       -0.9327856147        4.3110255639
 O         -1.3548173374       -3.7211112425        0.3196612949
 H         -1.9287401072       -2.9511642229        0.5285174532
 H         -0.5720551428       -3.3645770316       -0.1285881525
 O         -0.3715821042        2.4967828699        3.5106964766
 H         -0.6413827356        1.7428182594        2.9654907461
 H          0.3000839841        2.1588668690        4.1211868115
 O          1.0411780297        3.8508810580       -2.5300200454
 H          1.5095868112        3.7076413090       -1.6725390321
 H          1.0589961848        4.7973207271       -2.6725071258
