  219
       -371.63563425
 O         -0.6158437998        3.7574298667        2.3703710646
 H          0.2374114710        3.9626231761        2.7957444647
 H         -1.1266070708        3.2747643307        3.0542395103
 O          0.0061017025        0.5943567925        2.7377651324
 H          0.8468629627        0.1232722854        2.5596395788
 H          0.2099666171        1.2014500677        3.4725910964
 O          0.8975644289       -2.6436904039       -1.7956046634
 H          0.5795841986       -2.5098832826       -0.8837791395
 H          1.7544244917       -2.1432432131       -1.8423350305
 O         -6.1250282383       -3.8646328398       -1.9382652452
 H         -6.0957970761       -3.3616394732       -2.7685719904
 H         -6.1678899835       -3.1885882038       -1.2428502267
 O         -3.0974587515       -1.2220591456       -5.2296245488
 H         -2.6521554998       -2.0223704130       -4.8865940542
 H         -2.4864140327       -0.8671741296       -5.8828172209
 O         -3.6022939298       -4.5330364916       -1.6036785713
 H         -3.2212785199       -5.1797428085       -2.2009870072
 H         -4.5733549437       -4.4541785754       -1.7827608763
 O          2.4638098381       -0.4611319837        2.5888656795
 H          2.8899697244        0.4087332005        2.4614222072
 H          2.5531927670       -0.7076298507        3.5299709910
 O         -4.0862649584        4.0854281763        3.8299349559
 H         -3.8270793328        4.5293854247        3.0118504107
 H         -4.8807572460        3.5661425323        3.6317276094
 O         -5.3238164699       -2.2882522578        3.6041927463
 H         -4.3674670232       -2.3752177271        3.4338900037
 H         -5.7352931992       -2.9801898671        3.0678667450
 O         -6.0638396768       -4.0470486739        1.5409512848
 H         -6.8427477499       -4.5272113050        1.2578424895
 H         -5.9625040540       -3.2936807425        0.9322405533
 O          0.6746972448       -1.8951263597        0.7835351618
 H          0.1967475156       -1.9952586469        1.6299006021
 H          1.5764790212       -2.1985789545        0.9866492429
 O         -2.8316192303       -2.8367160578        2.6450794250
 H         -3.0094892909       -3.7171306464        2.2642557998
 H         -2.7889689766       -2.2513372495        1.8611742701
 O         -5.5026328566        0.0178477355       -1.9555136171
 H         -5.9422539060       -0.4341438258       -2.6896235896
 H         -5.9359331417        0.8973927195       -1.8195666374
 O          4.8254315979       -0.6246773673       -3.7972580809
 H          4.1215268572       -0.3622645011       -4.4103783860
 H          4.3438018370       -1.0895264376       -3.0828594056
 O          4.0819648037        5.1759029529        2.0905302554
 H          4.3512148296        6.0459367749        1.7971505548
 H          3.7253058622        4.7089976436        1.3072830354
 O          5.2272949596       -0.8702871629        4.2966706805
 H          4.9702649803       -1.0079976237        3.3735587152
 H          4.4483964984       -1.0546575491        4.8326385054
 O         -5.8944631681       -1.8056708160       -0.0188835869
 H         -6.6752845267       -1.3102179710        0.3175131264
 H         -5.5743046395       -1.2515536086       -0.7606061385
 O         -3.2445770933       -1.9337276477       -2.1472237367
 H         -2.4315275192       -1.6322059683       -2.6009078540
 H         -3.2047472105       -2.9080763720       -2.0771459036
 O         -0.2405650252        4.9934106088       -1.8993803519
 H          0.2593593971        5.7974459408       -1.7619422592
 H          0.0326472978        4.3557392079       -1.1996052010
 O         -0.4668938014       -0.2573200221       -5.6386998590
 H          0.4951448182       -0.2052157497       -5.7068040431
 H         -0.6421412571       -0.6307570724       -4.7504234905
 O         -0.9297335427       -4.1612393558        0.1824092779
 H         -1.6420760324       -4.6452148044        0.6151617705
 H         -0.0866350586       -4.5188126669        0.5446928226
 O         -0.8780764978       -0.9961884573       -3.0313871829
 H         -0.3543696160       -1.7360358143       -2.6813717091
 H         -0.3299092004       -0.2067944097       -2.8221532598
 O          2.9956591899        2.4143626233       -4.4942789798
 H          2.8467212219        1.5402756665       -4.8704154489
 H          2.1100863122        2.7973304300       -4.3636893303
 O          0.5386490557        2.0048610641        5.0023227277
 H          1.1285380625        2.7264235298        4.7366774071
 H         -0.3536936702        2.3880537991        5.0591452783
 O          2.2476634246       -0.3699203856       -4.7903433034
 H          1.8911814121       -0.0416328471       -3.9384716022
 H          2.0319152469       -1.3156011933       -4.8096651899
 O          2.1186137368       -5.0664810910       -1.6871508026
 H          1.6431983714       -4.2130733279       -1.7562679158
 H          3.0437392036       -4.8376716113       -1.5337956478
 O         -5.6020344909        3.6508004090        0.7255904712
 H         -4.8189902370        4.1867685717        0.9012798678
 H         -5.9552343139        3.3840055458        1.5853648489
 O          5.3290171104       -0.6238987529        1.4790894681
 H          5.7929092406       -1.3619656377        1.0453653800
 H          6.0179420599       -0.0548077483        1.8644886878
 O         -3.4953556571       -4.9636077590        1.0873990684
 H         -4.4176392083       -4.8890140865        1.3766011838
 H         -3.5331462372       -4.8318867925        0.1191045361
 O          0.4662686829        3.2573965497       -0.0070309324
 H          0.5567487645        2.2888812745       -0.0734170407
 H          0.0233448325        3.4301052637        0.8489672541
 O         -0.2875841850       -2.3609655270        3.2553117566
 H         -1.2380820536       -2.5972688523        3.1747586338
 H         -0.2138800669       -1.7154618701        3.9818727199
 O          6.7291104572       -2.5711020192        0.1567164237
 H          7.1960039740       -1.9464532590       -0.4593898552
 H          7.4122012237       -3.0934387561        0.5776154784
 O          6.4808330777        1.9815174189        0.0323590374
 H          7.3392312694        1.6467553288        0.3312327852
 H          6.4202899329        1.7490340240       -0.9009898792
 O          1.0583376035        0.6319072560        0.0285239537
 H          0.8169024794       -0.2760775954        0.3084121505
 H          2.0344181495        0.6471238356        0.0894421409
 O         -4.3179052258        3.2662730608       -3.4438702838
 H         -4.0192220000        2.3346457451       -3.5082193152
 H         -4.2171038260        3.6449145480       -4.3183015720
 O         -6.3551339905        2.4733289835       -1.6245738026
 H         -6.1352341892        2.9174968370       -0.7868365858
 H         -5.8403237821        2.9350904713       -2.3000857356
 O          2.5798208662       -1.5499585145        5.0597073217
 H          2.4659924766       -2.4838828562        4.8321430152
 H          1.7541933315       -1.2803001027        5.4824305829
 O         -5.4150462127       -1.9722092732       -3.7988862578
 H         -5.0925467980       -1.8891090791       -4.6998668869
 H         -4.6080865615       -1.9388007469       -3.2410267493
 O         -0.8936537786       -5.0564212258       -2.3879969254
 H         -0.9498283708       -4.6819811549       -1.4846649581
 H         -0.0512289635       -5.5139506732       -2.4288008398
 O         -6.3483707595        2.6011771525        3.2036291226
 H         -6.3422704831        1.6300263228        3.3283912404
 H         -7.0905202724        2.9416299619        3.7052463620
 O         -1.9937120715        2.5626478387        4.3595537948
 H         -2.7871740863        3.1407850455        4.3465384155
 H         -2.3030949387        1.6343553418        4.3349870685
 O         -0.0528548451       -0.6684465893        5.4397323593
 H          0.2336933309        0.2588578438        5.3854864467
 H         -0.9971659250       -0.6376181991        5.6203508208
 O          1.4165307726       -5.1446538901        0.9101690092
 H          1.6787476454       -5.3876524567       -0.0014919167
 H          2.0439690584       -4.4665333537        1.1809825026
 O          3.2939906519       -1.6415146083       -1.8407056379
 H          3.3968143883       -0.8670328473       -1.2371137021
 H          3.7566144092       -2.3998193751       -1.4173203460
 O          3.3205805029        2.0191983716        2.2067750355
 H          4.2404703020        2.2216328676        2.4759701328
 H          3.2269214756        2.4474010065        1.3298273321
 O          3.1066453476       -2.8444831870        1.6631923900
 H          3.2383118943       -1.8951925702        1.8625576318
 H          2.8359908553       -3.2428589701        2.5150408559
 O          1.2597408985       -2.9916418364       -4.5481734243
 H          1.1062872232       -3.0220434176       -3.5921092758
 H          1.7867510369       -3.7588441349       -4.7723534733
 O          4.1030527197        2.4020061672       -2.0968486285
 H          3.6153024883        2.4114851536       -2.9575452868
 H          5.0206657244        2.2295302041       -2.3433555559
 O          7.9950094658       -0.7515196987       -1.2227387221
 H          7.4564996615       -0.1446695526       -1.7588541050
 H          8.3867273309       -0.2287559551       -0.5070795704
 O          7.1123392651        0.7084754597        3.1294787773
 H          6.7259938519        1.5967002271        3.1591315895
 H          6.6528719170        0.1853571434        3.8070877321
 O         -2.7099633717        4.0357796737       -1.3767376623
 H         -2.0003787497        4.5996492113       -1.7245186528
 H         -3.3782538193        3.9331066026       -2.0783132328
 O         -3.0052359484        4.8100411075        1.2785764753
 H         -2.1349336588        4.6205625656        1.6626312817
 H         -2.8968991901        4.7027192557        0.3201927092
 O         -1.4337402208        1.6740940795       -1.7714534358
 H         -2.0453985718        1.1852146878       -2.3512609244
 H         -1.8266081958        2.5576264265       -1.6448527183
 O          3.6624207435        0.4432158880       -0.2939558580
 H          4.3637228325        0.2231656446        0.3534202999
 H          3.9566279134        1.1639371092       -0.8831636249
 O         -2.1870148016       -1.7766018650        0.2738011567
 H         -1.5723216492       -2.5300736021        0.2085571142
 H         -2.7037020676       -1.7790508008       -0.5601980864
 O          1.8195113640       -3.8969954516        3.7674632521
 H          1.6382273846       -4.8341687441        3.6852502882
 H          0.9738880684       -3.4258564053        3.5743989709
 O         -3.3750728635        0.7209418348       -3.4082041082
 H         -4.0663734908        0.3860616624       -2.7955409727
 H         -3.2681075579        0.0033361349       -4.0780184120
 O         -2.4198796233       -0.0679983132        3.9188232006
 H         -1.5845946098       -0.0642560458        3.4189217954
 H         -3.1160044881       -0.3062082497        3.2913339750
 O          1.8812747178        3.8629988545        3.4810368148
 H          2.4788211315        4.6128210299        3.4026025472
 H          2.3627226980        3.1221733732        3.0422519115
 O          0.4796108135        3.0946139584       -3.7637368642
 H          0.1965686339        3.8403718193       -3.2150536616
 H         -0.2918123656        2.8377477550       -4.3194142135
 O         -1.5866667656        2.1331844546       -5.1195980182
 H         -1.1477969479        1.3476565673       -5.5072395384
 H         -2.2099836122        1.7632539961       -4.4842259280
 O          6.4676310488        1.0637150235       -2.7040899807
 H          7.0395408999        1.3657588142       -3.4108317223
 H          5.8356424797        0.4116269123       -3.1313183876
 O          5.7667046361        3.0107750580        2.4620797928
 H          5.3822915847        3.9026174309        2.4746078753
 H          5.9961038122        2.8176478949        1.5359622681
 O          4.3706546407       -3.6965159132       -0.5723626461
 H          5.3068977450       -3.4575072306       -0.4687994062
 H          3.9740156280       -3.4931773306        0.2941432497
 O          3.1049600723        3.6518316342        0.0764232972
 H          3.4999024615        3.3192329091       -0.7501888768
 H          2.1322227359        3.6040144016       -0.0307509211
 O          8.7669491647        0.7423019219        1.0151433316
 H          9.6473343734        1.0462932865        1.2372603827
 H          8.2922281278        0.6148679375        1.8607032581
 O          1.0643317501        0.7289585575       -2.6431619909
 H          0.8269950771        1.6294124986       -2.9444731164
 H          1.0892123517        0.7486344832       -1.6673535817
 O         -6.6925080878       -0.0619317186        3.5042135881
 H         -7.3138275003       -0.2612045122        4.2062640588
 H         -6.0567209883       -0.8285713766        3.5029838016
 O         -1.6169088864       -3.3445780517       -4.3978684270
 H         -0.7533342006       -3.1553588997       -4.7835759403
 H         -1.4475822823       -3.9890942587       -3.6877388373
 O         -7.7066512866       -0.1533566993        0.9735450421
 H         -7.4000436296       -0.0599820163        1.8967543329
 H         -7.7102894582        0.7206284763        0.5781511450
 O         -2.0864986458        1.2729378274        0.9580160656
 H         -1.3065516188        1.0232826166        1.4706573708
 H         -1.8222641652        1.2460132465        0.0262792159
 O          0.7628465883        6.1275381381        0.7831996619
 H         -0.1170101702        6.0595860418        1.1614386637
 H          1.1793062205        5.2760747751        0.9425114508
 O         -4.1332696164       -0.2410977983        1.8866929611
 H         -3.4621018270        0.3316181487        1.4563173914
 H         -4.4829004878       -0.8169198516        1.2019048256
