  147
       -244.15253620
 H         -1.2793630552        2.4417613469        1.1039659454
 C         -1.1403259801        1.5836827488        0.4508872117
 H         -1.8997628277        0.8352163054        0.6743143196
 C          0.2344485102        0.9895782539        0.7103233080
 H          0.2766943479        0.6853718463        1.7527954514
 H          1.0100724853        1.7272960645        0.5210559959
 O         -1.3126136213        2.0639547623       -0.8651446717
 H         -1.2059826752        1.3209065736       -1.5056928371
 N          0.4837351456       -0.1760178539       -0.1579713912
 H         -0.3996916491       -0.7012722653       -0.3593739998
 H          1.1432856597       -0.8202583135        0.3124955091
 H          0.9278698558        0.1653523282       -1.0379796503
 O          6.4940781090        0.9057084485        2.7000792083
 H          6.1372301090        1.8177349291        2.5093697725
 H          7.3856687711        1.0258212650        3.0268792759
 O          5.8984283887       -3.0181342187        0.4033442266
 H          5.5965353394       -3.1689387467       -0.5362328144
 H          6.7684189250       -3.4120732076        0.4764687240
 O         -3.6509886161        0.0988227063       -2.6862660429
 H         -3.8295341812        0.0471397900       -1.7287528083
 H         -4.1114580013       -0.6760219167       -3.0511164426
 O         -3.9027918120       -0.1242744221        0.0061642463
 H         -4.3011637173       -0.5401585680        0.7904286207
 H         -3.9750780858        0.8481850424        0.1445422530
 O         -1.0116827893        3.8004491396       -3.8351853638
 H         -1.0587040812        4.6915920985       -4.1822155001
 H         -0.3530143781        3.8139437009       -3.0980483474
 O         -1.2154718265       -1.3915303864        1.9514115557
 H         -1.7679415941       -0.6913282130        2.3486728602
 H         -0.6274665684       -1.6957113508        2.6847626530
 O         -3.5042550654        2.8661276466       -2.6266951267
 H         -3.5192021360        1.9105872081       -2.7921420429
 H         -2.6884055403        3.2001479479       -3.0182773337
 O         -3.1412350579        2.9560386286        2.6679295040
 H         -2.3789000724        3.5358073216        2.5814321593
 H         -3.5702487351        2.9227046802        1.7943094509
 O          4.4721001927       -0.4300695324       -3.3258008293
 H          3.8932235988       -0.1790834276       -4.0543582563
 H          3.9051183701       -0.9439897817       -2.7230051735
 O          4.4974541345        1.3570415315       -1.3588743540
 H          4.8255186130        0.7874234746       -0.6395285546
 H          4.7069695145        0.8578829924       -2.1772306937
 O          5.3344519144        3.1944262029        2.2361474552
 H          5.2266681072        3.5039950122        1.3234564170
 H          4.4303446494        2.9605697304        2.5247776236
 O         -4.7026759821       -1.2885712294        2.3475208454
 H         -4.1565767326       -0.6439964058        2.8388157232
 H         -4.1598286919       -2.0975016575        2.2807745216
 O          0.6489697056        3.5374334645       -1.7655360838
 H          1.1977277211        2.7552354222       -1.9942331828
 H         -0.1390658362        3.1330631780       -1.3259197959
 O         -6.1802882142        2.2273561431       -1.5064699299
 H         -5.6197321204        2.5647250733       -2.2133911001
 H         -6.3073751398        1.2795152221       -1.6736895237
 O         -1.7625865829       -1.6110638180       -0.7736686271
 H         -2.5602633789       -1.1754061622       -0.4205260970
 H         -1.9694811019       -1.8765980973       -1.6984045835
 O          2.7473083297       -1.5379043183        3.5200990950
 H          3.3485634916       -0.9165373780        3.9884330058
 H          3.2644806766       -2.3100371502        3.2547488878
 O         -0.8863731260        0.2264143259        5.2534199218
 H         -0.3669930791        0.9019767664        4.7629945065
 H         -0.9051740053        0.5081010051        6.1681909447
 O         -0.4080577522        1.5166466114       -5.1045405694
 H         -0.9897338822        1.3983571232       -5.8563961919
 H         -0.5982438757        2.4048991237       -4.7332235976
 O         -6.7622910427       -1.7766994538        0.6960184736
 H         -6.1437749198       -1.4827623957        1.3924764051
 H         -7.5674601612       -2.0470829981        1.1385202012
 O          2.8061753643       -1.8979201719       -1.7064683533
 H          2.4979188437       -2.1253943447       -0.8072189423
 H          2.0135036863       -1.9625614937       -2.2807762820
 O         -2.9081118534       -3.3302773299        1.9479806445
 H         -2.7442804518       -3.7863766924        2.7739622953
 H         -2.2188573984       -2.5929309244        1.8914639006
 O          2.8118697733        0.0045538557        1.3387858794
 H          3.7132825734       -0.1649450017        1.0065787359
 H          2.6821612146       -0.6140465992        2.0876750588
 O         -2.7930876587        0.3646025531        3.2781041246
 H         -2.2848899177        0.3163052094        4.1046043982
 H         -2.9378010716        1.3188942889        3.0982302794
 O         -4.9925132604       -2.2660757182       -2.9141736829
 H         -5.7809227590       -1.7327570336       -2.7311030992
 H         -4.8017701143       -2.7114266026       -2.0675484711
 O         -0.3636085626        4.2651763251        2.2782848411
 H          0.4039308510        4.2468734705        1.6814071739
 H         -0.3552328389        5.1273408150        2.6974225655
 O          3.8429333150       -3.6415838678        2.0695027469
 H          4.5930254516       -3.4026750250        1.4875107925
 H          3.9523430676       -4.5639886473        2.3019036024
 O         -4.5471400648       -3.2256856456       -0.4035683750
 H         -5.3556463571       -2.8644499037       -0.0170287804
 H         -3.9280557656       -3.3489449005        0.3263902450
 O          4.3297917063        0.4217210964        4.3608949535
 H          5.1542613862        0.4942777078        3.8496261660
 H          3.8258002775        1.2173926479        4.1637012265
 O         -2.2593309781       -2.4738645846       -3.2502937658
 H         -3.2139567325       -2.5648568819       -3.3712937376
 H         -1.8846773982       -3.3621307778       -3.2255542037
 O          5.0619848299       -3.2741569467       -2.0579302483
 H          4.1629815715       -2.8856357238       -1.9694477711
 H          5.5208655813       -2.7071378286       -2.6833153083
 O          1.8883117965        4.0167128942        0.5925016610
 H          1.4237920030        3.9569656433       -0.2698208399
 H          2.8162696553        4.1697584783        0.3512448013
 O         -6.8201460863       -0.5124513791       -1.7565492294
 H         -6.7487579039       -0.8941260849       -0.8612890539
 H         -7.7555720366       -0.4524489136       -1.9558999207
 O          2.7962800349        2.3034613918        2.5908982906
 H          2.8242510207        1.4363414041        2.1010870468
 H          2.4337934836        2.9399428820        1.9529992824
 O          1.9309731900        0.0923429584       -4.4811914101
 H          1.2406807650        0.6105761252       -4.9173988523
 H          1.5235575766       -0.7616504144       -4.2583570988
 O          1.7017373788       -2.5456416431        0.6411541010
 H          0.9049221297       -3.1004325605        0.5825184963
 H          2.3229174656       -2.9685212766        1.2514796503
 O          4.5064179741        3.8473432322       -0.3399671726
 H          4.9686701417        4.4373030507       -0.9357074802
 H          4.5101812581        2.9605813410       -0.7592794743
 O          0.1327850349       -2.0891775342        4.0881639096
 H          1.0827547397       -1.9231852344        3.9609975315
 H         -0.1913782013       -1.3745524637        4.6589901033
 O         -0.4339897329       -4.4396370084       -2.5200669713
 H          0.0071943378       -5.2742394811       -2.6761119309
 H         -0.4933535173       -4.3196898002       -1.5483054095
 O         -4.0883532951        2.5324185038        0.1118810873
 H         -4.9956951271        2.5607186901       -0.2588455937
 H         -3.5272896200        2.7890390096       -0.6402397303
 O          5.3686472584       -0.3363460330        0.5820814158
 H          5.6107612814       -1.2758087254        0.5213357993
 H          5.8694887985        0.0446753777        1.3265403984
 O         -0.6652432025       -3.8301290221        0.1110323383
 H         -1.0888118357       -2.9651202490       -0.1240628563
 H         -1.2861828652       -4.2448987861        0.7157909506
 O          0.6188317385       -1.9516443338       -3.2021496013
 H         -0.0898632406       -1.3081001313       -2.9962465201
 H          0.2220799007       -2.8321008730       -3.1135753170
 O          1.8887060551        1.1845033347       -2.0324537671
 H          2.8061084549        1.2330027346       -1.6936923700
 H          1.9448226193        0.8103291409       -2.9382168193
 O         -0.9970582131        0.1934938908       -2.7774013082
 H         -1.9611547754        0.0113060129       -2.8457295248
 H         -0.7553244509        0.6508226866       -3.6003523607
 O          0.3969858358        2.0708178693        3.8430561142
 H          1.3273613481        2.1037673035        3.5557105665
 H         -0.0357552514        2.8197741708        3.4089589666
