  86
       -142.08395938
 H          0.9326260563        1.1206076286       -0.7090327286
 C          0.3182241886        0.2328444284       -0.5610570799
 H          0.0090537065       -0.1526593084       -1.5347175965
 C         -0.9220466628        0.5867831323        0.2566720497
 H         -1.5666788911        1.2081254190       -0.3637930214
 H         -0.6368494004        1.1562298541        1.1451176627
 N         -1.6470711369       -0.6388643162        0.5955721889
 H         -1.1648575884       -1.1343310160        1.3374633206
 H         -2.5712954711       -0.4154224501        0.9386832392
 O          1.1540159173       -0.7185749424        0.0866342561
 H          0.6807622711       -1.5763592118        0.1618655090
 O          2.3115986211       -1.6972671166       -2.2575627653
 H          2.0886164136       -1.2238758453       -1.4374258815
 H          1.4559388834       -1.8232270819       -2.7337604366
 O         -2.1806883245       -2.0813459421       -1.5663102669
 H         -2.8463106121       -1.5301811292       -2.0068917159
 H         -1.8805262484       -1.5117111565       -0.7986664384
 O          2.3413307254        2.3419490748       -2.0274154337
 H          3.0046302760        2.5992247946       -1.3518200348
 H          2.7791861964        1.6832153950       -2.5884806948
 O          1.1746831559       -0.4361105053        2.8415224017
 H          0.6940135384       -1.2191487805        3.1452568678
 H          1.2112811630       -0.4966992225        1.8659023487
 O         -0.7792689618        3.8707756955       -0.1137261244
 H         -0.0267547890        3.5391345723        0.4020355789
 H         -0.6312729213        3.5564665497       -1.0241874927
 O          3.2853642017        1.0019903270        1.8028176147
 H          2.8092555312        0.6109656825        2.5449187951
 H          3.5724393343        0.2432482956        1.2606786185
 O         -0.0989010857       -1.8402915099       -3.3615797660
 H         -0.4072474764       -0.9683799123       -3.6725276820
 H         -0.7987478798       -2.1380050743       -2.7542037875
 O          4.2765395270       -1.2335387393        0.5485921229
 H          5.0334518551       -1.5656949488        1.0326878205
 H          3.7410324998       -2.0277446202        0.3022305102
 O         -1.2715499540        0.6076382841       -3.6535961002
 H         -0.9015927198        1.4246145030       -3.2820891913
 H         -2.1288237466        0.4734412715       -3.2235422522
 O         -2.8067246273        1.7581328322        3.1192692236
 H         -2.9326886071        2.3710585148        2.3731969025
 H         -1.8483344220        1.7866245016        3.3136171568
 O         -0.1082313814        1.9275455285        3.3442173088
 H          0.3819348829        2.5249788050        2.7643090680
 H          0.3652466778        1.0757599778        3.3046305064
 O         -0.3569697988       -2.7114107048        3.3200572954
 H         -0.2144730304       -3.2543843302        4.0949765104
 H         -1.3370337455       -2.7202144418        3.1493004708
 O         -2.8868076568       -2.8162342767        2.6352796225
 H         -3.3373330998       -1.9645995334        2.4966491762
 H         -2.8435079758       -3.2593269340        1.7728694803
 O          2.9095935057       -3.4026331545       -0.1912348118
 H          2.7975642679       -3.1002060950       -1.1080437014
 H          2.0130109768       -3.4722387819        0.1693513382
 O          3.5768467452        0.2916768189       -3.4454301979
 H          3.6366486683        0.1370386421       -4.3876425039
 H          3.1320814766       -0.5026798729       -3.0539562578
 O         -0.1482034805        2.9424889525       -2.6114150585
 H         -0.0931665612        3.6166648998       -3.2902303096
 H          0.7860761263        2.7058961933       -2.3919933486
 O          4.2751312270        2.7472776973       -0.1856363602
 H          4.0836878055        2.3264886326        0.6616265146
 H          4.8542095125        2.0996377201       -0.6412557771
 O          0.2384248376       -3.2156663840        0.7007792533
 H         -0.6096269238       -3.6005925567        0.4229163336
 H          0.1796862117       -3.1422252143        1.6694528699
 O          1.4935434046        2.9773670022        1.2202175776
 H          2.0541690084        2.1820394565        1.3319594468
 H          2.0977107181        3.6580908711        0.9146762532
 O         -4.1192364586       -0.3326652005        2.3343251926
 H         -3.5767456398        0.4253858198        2.7085968117
 H         -4.9048778705       -0.3780294939        2.8808205905
 O         -2.3685082730       -4.0396167857        0.1615338825
 H         -2.6181301327       -4.8808005175       -0.2203299577
 H         -2.4192531396       -3.3668493229       -0.5627882980
 O          5.3793520665        0.5663438404       -1.3289184470
 H          4.8838054937        0.4899533006       -2.1581613716
 H          5.0029869569       -0.1039251946       -0.7365612940
 O         -3.7434954446        0.0239867154       -2.3783328445
 H         -4.0057314969        0.4245300906       -1.5149683681
 H         -4.4985892913        0.1245645552       -2.9579841224
 O         -3.1368770885        3.2812262335        0.8478876439
 H         -3.5786277623        4.1263907468        0.9334495696
 H         -2.2323256588        3.4831040829        0.4837181582
 O         -4.5222433911        1.0829928309       -0.0659730443
 H         -4.5068382295        0.5182565899        0.7229562335
 H         -4.0580319996        1.9006062286        0.1870819365
