  87
       -147.59244681
 O          0.7418512029       -4.6727073379       -0.0784060816
 H         -0.2292821242       -4.5215564743        0.0721502712
 H          0.8460742311       -5.6179090740       -0.1868555392
 O         -4.4179321641       -1.1265430897        1.8880549079
 H         -5.2804259771       -1.2385631322        2.2886598428
 H         -3.7777631835       -1.0856050820        2.6420436517
 O         -0.5349609281       -1.2570035962       -2.1396180768
 H         -0.7209970091       -0.8547391871       -1.2695093879
 H         -1.4067873415       -1.6221306957       -2.4517261468
 O         -2.9424734256       -1.9720998122       -2.8187910493
 H         -3.3250274244       -1.1135118535       -3.0871589388
 H         -3.3329798460       -2.1863208294       -1.9567493537
 O         -1.7338065143        2.1197171038       -4.0310756540
 H         -0.9491560321        1.5494592723       -4.0651908062
 H         -1.5232509457        2.8052021616       -3.3754248743
 O          1.7123714411       -2.6490560358       -1.6627203326
 H          1.4247587985       -3.4589703675       -1.2065356547
 H          0.8815884276       -2.1629957457       -1.8507870435
 O         -0.9374277736       -2.3739318708        2.2835683683
 H         -1.0135695504       -1.6608889982        1.6236368956
 H          0.0084436788       -2.6174508840        2.3059737367
 O          4.3479445983        0.8265032786        0.6533776751
 H          3.9600376678        1.2035877374        1.4539025167
 H          3.9511994953       -0.0533221390        0.5656858946
 O          1.0533694517        3.4640812894        4.1361113435
 H          1.4567488384        4.3306288701        4.0767445155
 H          0.2524927715        3.4912844098        3.5776737311
 O         -1.2339216847        3.3537308866        2.6099356083
 H         -0.8808335073        3.6885931882        1.7369431736
 H         -1.9854169910        3.9069870177        2.8241035809
 O         -3.9009618538       -2.6557010053       -0.2843979650
 H         -4.0171630198       -2.0512309463        0.4810465618
 H         -4.6995775298       -3.1828116827       -0.3334462670
 O          3.3373613455       -1.7749983086        0.2443440958
 H          2.7557535630       -2.0026670617       -0.5226582904
 H          4.1919661125       -2.1666363466        0.0573229760
 O         -1.7768735000       -4.2609373851        0.5503447422
 H         -1.5842522553       -3.6908419206        1.3221114158
 H         -2.4493552790       -3.7718415434        0.0509064890
 O          1.6734015092       -3.0536805196        1.9911393339
 H          1.4267826802       -3.7667647975        1.3774628424
 H          2.3421799864       -2.5341730649        1.5058020657
 O         -0.1639165774        4.2603454973        0.4152613086
 H         -0.5594234453        4.2592839229       -0.4713437406
 H          0.5645484089        3.5963014701        0.3456911010
 O         -2.6805736050       -1.0737451716        3.9027706622
 H         -2.1422723127       -0.2787370260        4.0314023422
 H         -2.0671583498       -1.7230574943        3.5168221720
 O          3.7615929555        1.7458993608       -1.8733783720
 H          3.6786567834        0.9028447319       -2.3507567064
 H          4.1188912292        1.5055677405       -0.9983016562
 O          1.6173802358       -0.7317600016        3.7856968450
 H          1.6837287536       -1.6015949198        3.3774967830
 H          0.6806982731       -0.4993395013        3.8214751943
 O          1.6138403376        2.8191278543       -3.1874788289
 H          2.4355830340        2.5834458512       -2.7181708988
 H          1.3129558236        2.0043002080       -3.6066114036
 O          2.6485914952        1.6152652614        2.7978019389
 H          2.2088271889        2.2601660556        3.3760888382
 H          2.4217925139        0.7424581499        3.1681654660
 O         -0.5860356196        4.0151604955       -2.3228655411
 H          0.2770102951        3.5910504212       -2.5586246094
 H         -0.5815626221        4.8633467787       -2.7685183883
 O         -0.7310802613        0.9566114497        4.0004104227
 H         -0.9744876204        1.7163438321        3.4479141024
 H         -0.1990029955        1.3233634360        4.7116252432
 O         -3.8120880089        0.5076141627       -3.5298268574
 H         -3.0702425748        1.1305457949       -3.7113105888
 H         -4.4286834209        0.6133449155       -4.2539641339
 O          0.4122565874        0.2947984041       -4.0193456436
 H          0.0293118001       -0.2644249311       -3.2872271434
 H          0.2470563492       -0.1829121277       -4.8337058356
 O          2.9946298372       -0.5902960305       -3.1810401355
 H          2.1809258075       -0.2371623255       -3.5688597189
 H          2.7370699521       -1.4027297732       -2.7294978286
 O         -0.6466797816       -0.2033544986        0.3805548673
 H         -1.3804181268        0.3523052643        0.0585019732
 H          0.1060165655        0.4090082531        0.4301351590
 O          1.4092958899        1.8501402853        0.2788818024
 H          1.8798413711        1.7796839482        1.1321447125
 H          2.0825270473        1.7922076487       -0.4111661980
 O         -2.5358772752        1.1449947110       -0.9692168054
 H         -3.0596403453        0.8621325962       -1.7246724535
 H         -3.1438104771        1.5419066872       -0.3277665506
 O         -4.3985350594        1.6437678034        0.9882271645
 H         -5.3007380809        1.7889866165        0.7006943371
 H         -4.3373054807        0.7334794190        1.3220296108
