  84
       -142.48807996
 O          3.7514143372       -3.0860383041        0.8937255292
 H          2.8448467440       -3.2569674279        1.1854971424
 H          3.7872818576       -3.3311213721       -0.0414703443
 O          3.9120589100        1.2375969266        2.8731113215
 H          4.1224315637        0.5074525970        2.2525774564
 H          4.7495781205        1.5459602797        3.2247138572
 O          1.0725256925       -0.7166153608        2.2478295753
 H          1.2034422175       -0.4792009096        3.1739571021
 H          0.6135302393        0.0472374885        1.8429298394
 O         -1.6837803947       -3.1932622637        0.6441290528
 H         -2.5212814766       -3.2517863902        1.1251764588
 H         -1.5259319588       -2.2084836002        0.5704766361
 O         -4.8727107866       -0.8495798269       -0.1930003712
 H         -4.6429463214       -1.4831607864        0.5088415594
 H         -4.2166434086       -0.9717055234       -0.8939667450
 O          3.0019310004        1.5230675068       -3.3489109327
 H          3.3985630709        0.8653952493       -2.7645253283
 H          2.6414586319        2.2105622238       -2.7577137020
 O         -4.5164172466        1.4827452808        1.0070789638
 H         -5.3462387234        1.8471416627        1.3163799572
 H         -4.7324388872        0.6499564021        0.5160099602
 O         -0.9186706686        1.4865190746        3.8112824484
 H         -0.1562113355        1.1686597661        4.3071836840
 H         -0.5695274266        1.7307248201        2.9335453180
 O          0.9681916287       -3.0730516222        1.1678465182
 H          0.0564001629       -3.4038198136        1.2211118204
 H          0.9678880376       -2.2210200611        1.6731042404
 O         -2.8046779332       -0.9516503821       -2.0578857615
 H         -2.4287306696       -1.8371794935       -2.1841239702
 H         -2.2251278515       -0.3474375089       -2.5662345430
 O         -1.2441462140        0.7894146073       -3.3657336489
 H         -1.8304836300        1.3635718132       -3.8651277217
 H         -0.4301682821        0.6349787168       -3.9011129700
 O         -2.7546587555        0.0570534892        2.5333293496
 H         -3.3533446242        0.7315842526        2.1658924890
 H         -2.1456848635        0.5292202833        3.1445654363
 O          3.6225958183       -3.0373124709       -1.9493354833
 H          3.7575853768       -2.0690295139       -1.8362241435
 H          4.1781769382       -3.3248835695       -2.6742614552
 O          4.7977718663       -0.6812234885        1.1451728888
 H          4.3775753237       -1.5814086936        1.1607728966
 H          5.7361734477       -0.8347436586        1.2682587942
 O         -1.4280780248       -0.6216175248        0.3148713353
 H         -1.8431602174       -0.2708721921        1.1332331247
 H         -2.0552377058       -0.4773452432       -0.4110784324
 O         -3.2329607165        2.9885255788       -0.9428387662
 H         -3.6553276649        2.5556193159       -0.1827330959
 H         -3.6015153719        2.5686755816       -1.7356994266
 O         -0.7184657784        2.2244289978       -1.1006728125
 H         -1.5947048510        2.6629831912       -0.9813826926
 H         -0.8322034030        1.6669839032       -1.8894107353
 O          1.7601264799        0.6001222803        4.5827727751
 H          2.0889601295        0.4345979896        5.4671117114
 H          2.5115159073        0.8999049116        4.0438549402
 O          2.5020074366        3.1079306661        1.4243186400
 H          2.4803283380        3.9180224642        1.9363819914
 H          3.0289840816        2.4594680008        1.9284072070
 O         -3.9236217398       -2.2999135922        1.9753583395
 H         -3.4766874704       -1.4919492712        2.3095564689
 H         -4.5221129742       -2.5873973192        2.6654539350
 O         -1.4231350779       -3.3601253225       -1.9593395112
 H         -1.5965907073       -3.4331258393       -0.9827366657
 H         -1.6470509306       -4.2052050885       -2.3496838835
 O         -4.1957989657        1.4071310313       -3.0556656899
 H         -5.1134675345        1.5046216367       -3.3139372905
 H         -4.0851505974        0.5063511677       -2.7272556780
 O          0.1744723660        1.6513872348        1.3436461721
 H         -0.2491646975        1.7813208341        0.4710330977
 H          0.9624201272        2.2190778138        1.3458121796
 O          1.0344004046        0.3591638517       -4.6485167501
 H          1.7837896296        0.8420779477       -4.2073799716
 H          1.1018444970        0.5698433701       -5.5804126537
 O          1.8729657446        3.0394320653       -1.3922038870
 H          2.1820691565        3.2695297971       -0.5092806549
 H          0.9083163588        2.9209968853       -1.3281449223
 O          1.1967858193       -0.9697887761       -0.7841663166
 H          0.3575189559       -0.5985890381       -0.4922119864
 H          1.2383266734       -1.8456997886       -0.3742621216
 O          3.6853986965       -0.3307565112       -1.4413672363
 H          4.0919751787       -0.2508717402       -0.5672387212
 H          2.7269615158       -0.4709366235       -1.2581673370
 O          4.9401736833        3.0072313152       -0.2336968963
 H          4.0700395958        2.9783748671        0.1783623858
 H          4.7972795061        2.7529676973       -1.1480697684
