  114
       -193.40353949
 O          4.8483295442        2.3369788105        2.1806060689
 H          5.4042200988        2.7484467192        2.8437818471
 H          4.3115334126        1.6506068371        2.6550409800
 O          0.2467986238        2.4120535413        2.5505852461
 H          0.9922274227        2.5427228534        1.9368148568
 H          0.4635086661        1.6006394810        3.0456384399
 O          0.6563988407        0.0145429747        3.8012451863
 H          0.8436163921       -0.7640950772        3.2336990277
 H         -0.1998265513       -0.1724208348        4.1977958867
 O          3.7145306152       -2.3984314217        2.8330468698
 H          3.8351531884       -1.4880134455        3.1430375794
 H          4.2669899372       -2.4951305414        2.0394086143
 O          5.3087669933       -2.4168887669        0.5561451048
 H          6.1745275657       -2.8078886179        0.6777241606
 H          5.4386298193       -1.4553794718        0.4611843219
 O         -4.2174779122       -0.9976292919        1.8301121411
 H         -4.5867334946       -1.8074589976        1.4463616094
 H         -4.9446019607       -0.3484487656        1.8611116884
 O         -2.4099476689        1.7895291957        3.1498448444
 H         -1.5090029185        2.1310951245        3.0669591775
 H         -2.3377069085        0.8837690148        3.4679963100
 O          1.1659024698       -2.1651137973        2.2947714919
 H          2.1170487328       -2.3790298143        2.4737435977
 H          0.6150699795       -2.8807908509        2.6420049086
 O         -1.0723644519       -3.6834394971        2.8101842857
 H         -1.2746147228       -4.5278810830        3.2137286914
 H         -1.4675380066       -3.6896613732        1.9160764525
 O         -0.0245831336        3.3217800665       -1.6799519239
 H         -0.5163208740        3.5799008775       -0.8799088960
 H          0.3779440530        2.4557332919       -1.4707799453
 O          0.2924182678       -1.2414340372       -2.5643778268
 H          1.1626071105       -1.3996448733       -2.9766279571
 H         -0.2931633316       -0.8348209886       -3.2364910423
 O          5.1685737429        3.8081930565       -0.3785456457
 H          5.0339217766        3.4928534703        0.5228549016
 H          4.3056420232        4.0771907348       -0.7294600726
 O         -2.0296266042        2.3155741076       -3.1912539859
 H         -1.3089297316        2.7948442171       -2.7316653066
 H         -2.7968466473        2.3311852340       -2.5942212454
 O         -6.2206289898        0.7766565187        1.4556929373
 H         -6.2936239654        0.6687535939        0.4694679335
 H         -7.1049022081        0.9345034452        1.7857957960
 O         -3.1672872487       -1.5900225651       -2.8441569293
 H         -3.0601506414       -1.1453441958       -1.9773650132
 H         -2.6949305957       -1.0231784757       -3.4797109801
 O          2.9170468097       -1.5271871674       -3.1623568469
 H          2.9469259398       -1.9358085822       -2.2516604850
 H          3.2802727805       -2.1768825949       -3.7642611607
 O         -6.1968861846        0.5261347714       -1.1521234454
 H         -6.0133588477       -0.3651455768       -1.4836644539
 H         -5.4442373909        1.0898778345       -1.4078387252
 O         -1.4020242684        3.6379556383        0.6194652759
 H         -0.8818928967        3.3431685443        1.3805625540
 H         -2.3108456580        3.7287093192        0.9172831178
 O          3.4518045511        1.2292539999       -2.9311616158
 H          4.3639280087        1.3770351697       -2.6253171044
 H          3.3972765287        0.2967009458       -3.1914132750
 O          2.8031598698       -2.5314266430       -0.7455032541
 H          2.6643047979       -1.7352269379       -0.1845801901
 H          3.6367378494       -2.8970404472       -0.4282639332
 O          3.3305428906        0.3857366864        3.1236107341
 H          2.9617991688        0.1671785061        2.2377835336
 H          2.5612753193        0.4744951401        3.6996228195
 O         -1.4324126345        0.0152992248       -4.1951948581
 H         -1.3541143974        0.1449037199       -5.1404879096
 H         -1.6591803752        0.9165556151       -3.8137627809
 O          2.6562028743        3.7827993321       -1.5879416036
 H          1.7039412727        3.9490058184       -1.7279069989
 H          2.9191778518        3.1818886082       -2.2946322554
 O          5.3690265730        0.3159812262        0.3094359505
 H          5.3960540652        1.0125046998        0.9854191691
 H          5.6422666307        0.7373593633       -0.5263187277
 O         -5.6666930346       -2.0590149527       -2.1173010558
 H         -4.7907997728       -1.9127387160       -2.5414726013
 H         -6.2488822123       -2.4258746259       -2.7837283579
 O         -4.8982462647       -3.1519364238        0.2434399872
 H         -5.2018595087       -2.7437043270       -0.5939733368
 H         -5.4482574550       -3.9220629812        0.3923158509
 O          5.9164312160        1.7947921010       -1.8802826438
 H          6.7106296216        1.9804266106       -2.3821455021
 H          5.7000196127        2.6226341847       -1.3727205484
 O         -4.2120848276        2.4244727684       -1.4732628045
 H         -4.6807743095        3.2206375191       -1.7297047548
 H         -4.0823861148        2.4902821683       -0.4987713448
 O         -1.9876192459       -1.0697164769        3.4443239811
 H         -2.8547003302       -1.0960476460        3.0066501453
 H         -1.6529630161       -1.9771603963        3.4040134016
 O         -1.3853909996       -3.5261657820       -2.1955741018
 H         -0.5886955208       -3.0003597085       -2.3446365864
 H         -2.1135647738       -2.9865238388       -2.5610651755
 O          1.3178434786        0.9864582769       -1.3662285250
 H          0.8916097487        0.2355158677       -1.8149209219
 H          2.1084316399        1.1855075722       -1.9112721652
 O          2.3345415355        2.5229333711        0.8266236351
 H          2.3937344424        3.0136402636       -0.0127191973
 H          3.1487698417        2.6843433427        1.3136080256
 O         -2.1264472199       -3.3604433656        0.3252003707
 H         -3.0923926840       -3.2527443216        0.3073257941
 H         -1.8647628095       -3.6338946377       -0.5869873966
 O          2.7266038422       -0.2328784217        0.5783806874
 H          2.2066112650        0.4188321676        0.0649911878
 H          3.6645385874       -0.0307061114        0.3913873343
 O         -4.1012506546        2.5514135408        1.1974854866
 H         -3.5042549719        2.2798976263        1.9241640014
 H         -4.9297385056        2.0822868346        1.3832837686
 O         -2.8288056784       -0.4015523819       -0.5230617177
 H         -3.3050467570       -0.5982980679        0.2977858290
 H         -1.8966296124       -0.3647893118       -0.2380527335
 O          0.9908812236       -4.5017058324        0.0722206177
 H          1.5894351396       -3.8222895998       -0.2693450535
 H          0.1472963921       -4.0525860143        0.1693197234
 O         -0.5224096192       -0.3681724105        0.9271964881
 H          0.2146258795       -0.9874119738        0.9574539000
 H         -0.9891407977       -0.4810835950        1.7636186867
