  282
       -473.35774244
 H         -2.1240258177       -0.0762233925        0.8230228642
 C         -1.6867322698        0.0728080265       -0.1624922629
 H         -1.8274482992       -0.8324286166       -0.7550323758
 C         -0.2053093293        0.3692210474       -0.0188208541
 H         -0.0850600066        1.2970681998        0.5369450213
 H          0.2403019061        0.4815107610       -1.0040173102
 O         -2.3776020439        1.1493255776       -0.7906059676
 H         -1.7178038369        1.7895701053       -1.1336068224
 N          0.4900123458       -0.7045482869        0.6961826608
 H          0.2335040277       -1.6580247400        0.3523071473
 H          0.3044140456       -0.6508578531        1.7154924339
 H          1.5133701227       -0.5459442826        0.5530413497
 O         -0.8105948672        0.7552496460       -3.6344164042
 H         -0.3951582252        1.3924181497       -3.0264421929
 H         -1.6477978286        1.1660590260       -3.8914959377
 O          2.7745279425        0.5697484164        0.2240701719
 H          3.6110528262        0.2126182108       -0.1302444243
 H          2.9370491947        0.8971882836        1.1290749488
 O          5.3987184398       -3.6794040905        3.8012436291
 H          4.8589465482       -3.6900941054        4.6166685199
 H          4.7495660346       -3.7086801306        3.0837362446
 O          2.7218241644       -5.0536843333       -0.1245136262
 H          2.2418448486       -5.0765074607       -0.9739504275
 H          3.6660095996       -5.0329572985       -0.3603976804
 O         -5.5744203131       -2.5396953078        3.3784282981
 H         -6.2893136834       -2.6379162350        2.7368554112
 H         -5.6392496536       -1.6222901076        3.6897865070
 O         -1.0323179230        3.6693732288       -5.0807556877
 H         -1.2373811561        3.8631430567       -5.9951480795
 H         -1.7479643796        3.0816807619       -4.7500028231
 O         -1.7957165084       -5.0751994121        2.7170809398
 H         -1.5855806633       -5.1274304126        3.6817040567
 H         -1.1151151781       -5.5530791346        2.2225445347
 O          1.8237696357        2.9960000062       -0.3178383229
 H          2.1554286781        2.0765353948       -0.2268160455
 H          2.6147440368        3.5583741357       -0.3508162215
 O         -6.9616051090       -2.3091737942        0.8967457260
 H         -6.6433445981       -2.7044366753        0.0715868041
 H         -7.5340827033       -1.5703841091        0.6219850166
 O          5.2560330306       -4.4931696113       -0.9314151181
 H          5.0930483405       -3.7805961798       -1.6010908819
 H          5.8341413547       -5.1354203791       -1.3413933511
 O          4.2962955554        1.7824808022       -2.0550028279
 H          4.2997150282        2.6793253860       -2.4448967637
 H          4.7535508040        1.8364434672       -1.1928867747
 O         -2.7619122686       -1.1115666732        2.8214779464
 H         -2.9216767337       -0.2441906191        3.2311165741
 H         -3.4699643895       -1.2227201552        2.1555049908
 O          1.4363675793       -1.5020864178       -2.1420420757
 H          1.9360941774       -1.7947661128       -1.3537982995
 H          0.5210719585       -1.7853263520       -2.0260799233
 O         -5.7796438871        4.7316052768       -2.7602932365
 H         -6.0359357476        5.6367712439       -2.5832440239
 H         -6.4963938421        4.1485160750       -2.4208018932
 O         -5.5741402400       -3.0574586960       -1.4161308865
 H         -5.5073375031       -4.0088741051       -1.2313396151
 H         -5.2942298990       -2.9168881137       -2.3311904229
 O         -3.0605920632        2.2085849511       -4.0217878755
 H         -3.7862058459        2.6801023966       -4.5321405509
 H         -3.1670571082        2.5489785304       -3.1078255331
 O          4.9232948247       -2.4929006684       -2.6198117697
 H          5.7312656179       -2.2707396950       -3.1012492896
 H          4.1742637730       -2.5029136931       -3.2851898566
 O          1.0979463659       -4.6291198352       -2.2542819782
 H          0.9238623300       -4.3232340784       -3.1609346035
 H          0.6047370948       -4.0121151905       -1.6782335575
 O         -0.2332036001       -3.1270565073       -0.3969071428
 H         -0.1162663196       -3.8593041055        0.2463748333
 H         -1.1893199371       -3.0291735818       -0.5280777269
 O          0.5670454756       -0.1360654962        3.3354372279
 H          0.0987779330       -0.5197855331        4.0995280295
 H          0.5544427236        0.8310028859        3.4510281026
 O         -0.5889476397       -2.6866920933        2.3922861175
 H         -1.2962661436       -2.0466310463        2.5668675142
 H         -1.0296695415       -3.5598578717        2.4117991735
 O          0.1619965528       -5.4688022305        0.9055180639
 H          1.1129110496       -5.5907766071        0.8215068967
 H         -0.2130171628       -5.9799626503        0.1408065061
 O         -0.5822108768       -1.0924482789        5.5796482307
 H         -0.5853225805       -0.2326953176        6.0329315448
 H         -1.4708604836       -1.4697732851        5.6251453607
 O         -3.9961313046       -4.0324295236        1.7022260952
 H         -4.4873983023       -3.5176793319        2.3663684862
 H         -3.2644755348       -4.4900656128        2.1603736682
 O          6.6418344632       -1.3702060848        3.7257493640
 H          6.2076372553       -2.2671147153        3.7599704482
 H          7.4756434931       -1.5044796279        3.2688920442
 O          2.6389775227       -2.3402556717        0.0696564819
 H          3.4334730404       -2.2106155025        0.5977297507
 H          2.5368519245       -3.3040381973       -0.0026561688
 O          1.5110835627        3.5346992272       -3.8302019620
 H          1.5523676515        2.6336599975       -3.4618734047
 H          0.7275254482        3.5545723849       -4.3967267831
 O         -0.1959726951        1.5154653346        6.2292578915
 H         -0.7805241697        2.1094673326        6.7043618442
 H         -0.0889019721        1.9051627728        5.3391307152
 O          4.1704799077        4.1577290713       -3.3124199237
 H          3.3173602248        4.0053519458       -3.7477363287
 H          4.0582305697        4.9603426337       -2.7760755053
 O          5.5983650417        2.1599092134        0.2375809015
 H          6.5057935779        2.2387812360       -0.0943389582
 H          5.5651451623        1.4420522939        0.8983139336
 O          3.5507317207       -3.2488269751        5.7356400616
 H          2.6592801700       -3.3011817280        5.3682546263
 H          3.7693209484       -2.3046448999        5.7878721762
 O         -2.1273780323       -1.5367600215       -6.2945595836
 H         -2.2154760746       -2.4877446762       -6.1972095795
 H         -1.1907167646       -1.3203317302       -6.1477611697
 O          5.0007758686       -0.6337438974       -0.7111865469
 H          5.1077442607       -1.2415568615        0.0544032615
 H          4.8199383211       -1.2289322142       -1.4693026834
 O          3.0277359147       -1.1201859666        2.8234565751
 H          2.9610168756       -2.0801317727        2.6817252617
 H          2.1304586392       -0.7866258765        3.0188669460
 O         -4.6673041440       -0.9487338337        0.9639195736
 H         -5.4931182292       -1.4568428823        1.0948462448
 H         -4.5828799222       -0.8371761583       -0.0021209718
 O         -4.2773309472        3.7459654380        3.1536031087
 H         -3.6812679391        4.0950482777        3.8318712702
 H         -3.8884119356        3.9717018430        2.2906699629
 O          7.2978135289       -1.3474036414       -3.4346799861
 H          7.5297092541       -0.9942245674       -2.5410958014
 H          8.1099141122       -1.4215500039       -3.9344255076
 O         -1.2013692504       -4.6753459412        5.2310678633
 H         -1.8282971407       -3.9438953549        5.3575318009
 H         -0.3241555929       -4.2644577821        5.1442836015
 O          2.9178143816       -2.3462009979       -4.2354815687
 H          2.9985728912       -1.5070179270       -4.7310503302
 H          2.2496545804       -2.1647728126       -3.5472344387
 O          0.0806023237        2.5474174225        3.7248892336
 H         -0.6194206416        2.3468322268        3.0437514305
 H          0.6733411367        3.1599032018        3.2435382532
 O          1.8947152920        1.0257462155       -2.8361010597
 H          2.7408427473        1.2431390545       -2.3966381582
 H          1.6924766515        0.1034676674       -2.5788850208
 O         -1.7186858054        2.0715421483        1.9648237638
 H         -2.4599626996        1.6885803335        2.4449944349
 H         -2.0777851705        2.8681702321        1.5119539595
 O         -2.2158602398        3.4323664279        5.0811823533
 H         -1.3915206820        3.3972448203        4.5741649055
 H         -2.6377179304        2.5713360987        4.9481850591
 O         -1.4669773698        5.1430240326       -2.8213954028
 H         -0.6842761276        5.6282521022       -2.5221127860
 H         -1.2887177952        4.8525693674       -3.7317090072
 O         -2.9761776228       -2.5069628579        5.0943283572
 H         -3.8778198657       -2.8213864874        5.1803164205
 H         -2.9319816148       -2.0899432882        4.2050466605
 O         -4.0815051461       -0.1639405051       -5.0979011538
 H         -3.4231817525       -0.5413373503       -5.7151702757
 H         -3.6818993749        0.6362537612       -4.7198423258
 O          5.5100922595        0.6398075078       -4.1529403604
 H          6.1048391030       -0.1031171104       -3.9665550923
 H          5.0696178843        0.8778702613       -3.3088153802
 O          5.3107991133       -2.5768397565        1.0659274949
 H          5.3543171287       -3.3732853385        0.5156234524
 H          6.2203602419       -2.3945852114        1.3539742560
 O          1.0751694905        5.4556142570       -1.9511610179
 H          1.9122162467        5.9102736600       -1.7916887797
 H          1.2833089418        4.7352345752       -2.5815229195
 O          7.9691548931       -1.8250430633        1.2262104709
 H          7.9267759502       -1.2203209287        0.4577237940
 H          8.7117162759       -2.4095213909        1.0757765129
 O          2.5374604401        1.3670357120        5.3290961487
 H          1.7801845228        1.1198406562        5.8704663941
 H          3.2208217866        0.6797432722        5.4454880202
 O          5.2916880211        0.2476192826        2.1228311906
 H          4.4039245808       -0.1288615719        2.2538251858
 H          5.8874442701       -0.3529287011        2.6240069258
 O         -4.5028113840       -0.2157280095       -1.6398151681
 H         -3.7397241392        0.3809794536       -1.5205160759
 H         -4.2449364292       -0.9157462541       -2.2553932874
 O          5.6703198738        2.4033476718        3.7074291715
 H          5.5113220556        1.6295641312        3.1238051971
 H          5.6461368157        2.0788938400        4.6077223711
 O         -0.4548313168        2.7501731769       -1.7963850670
 H          0.3598695131        2.9202381056       -1.2883094196
 H         -0.7971425516        3.6159757915       -2.0728051693
 O          1.2700054069        4.2080547725        2.0188920708
 H          1.4275209649        3.6603578979        1.2165902756
 H          2.1328760993        4.5198353731        2.3104196257
 O         -7.0539738775        2.1394419441        0.6878287615
 H         -7.2422779854        2.7061251339       -0.0724969386
 H         -6.0669850119        2.0490345016        0.7387188775
 O         -4.4878903445        1.7140493221        1.0167744615
 H         -4.5786342678        0.7516816558        1.1594351160
 H         -3.8238193648        1.8075727652        0.3192631836
 O         -2.7970673719        4.2017107979        0.8283335531
 H         -2.0234256205        4.7856719112        0.6732355997
 H         -3.1291751797        3.9621040332       -0.0547775625
 O         -8.2688570861       -0.0949453293       -0.0028766252
 H         -9.1944938553        0.0062718425        0.2177102967
 H         -7.8047597073        0.7133154447        0.3412654897
 O         -2.8942581225       -5.2284310406       -1.9558960946
 H         -3.6647349086       -5.6369002577       -1.5405519159
 H         -2.7855113706       -4.3752318114       -1.4834565786
 O         -0.6044690946       -6.5660173964       -1.3405406911
 H         -1.4678753865       -6.2062866766       -1.6135405879
 H          0.0569042879       -6.0812355455       -1.8653512798
 O          3.9419309878        4.3230336079        3.0457969858
 H          3.4782514310        4.4531827877        3.8976619478
 H          4.7282382037        3.7862501547        3.2799014952
 O          4.1080209094        4.3667365089        0.3425153649
 H          4.7229847636        3.6083799107        0.2750830369
 H          4.0817318884        4.5722727461        1.2898235378
 O         -0.0508820618       -3.3636361280       -4.3643127082
 H         -0.4704327193       -2.7442814766       -3.7226988178
 H          0.4178080620       -2.7875954700       -4.9820968887
 O         -0.5150451095        5.5049959825        0.3763455278
 H          0.0660518004        5.1862909148        1.0845593504
 H          0.0217888169        5.4890133815       -0.4298104102
 O          0.4176377588       -0.8605554965       -5.5092044399
 H          1.2798140264       -0.5348630883       -5.7900033201
 H          0.0988246838       -0.2253107601       -4.8457911353
 O          2.9923599568        0.1951049577       -5.1816887359
 H          2.5669473590        0.6049857001       -4.3994408902
 H          3.9359938372        0.4044906157       -5.0954081298
 O         -2.9636122885       -2.9530822614       -0.4932334284
 H         -3.2256012310       -3.2769019733        0.3940191139
 H         -3.8114426374       -2.7169838348       -0.9052684556
 O          6.7446220809        3.0013764817       -3.6128939818
 H          6.4127370360        2.1717129517       -4.0096130943
 H          5.9773965639        3.5899490881       -3.5979787526
 O         -3.8687758472       -2.2120978767       -3.4397997554
 H         -3.5096621332       -3.0002108614       -3.9204417883
 H         -4.0496758686       -1.5379626606       -4.1318352965
 O          2.8943142943       -3.8334461854        2.5221900656
 H          2.7351053376       -4.4121567234        1.7695036328
 H          2.2460748415       -4.0325742214        3.2054298460
 O          3.7274854845        6.2031066062       -1.5348221494
 H          4.2183014349        7.0107217696       -1.3858174199
 H          3.9166644152        5.6020238409       -0.7805569107
 O          2.8168434793        1.7861830738        2.5961059786
 H          3.2721402431        2.6392966993        2.6282810680
 H          2.6730502998        1.5343145599        3.5197267262
 O          2.4566081339        4.1037185775        5.2559961909
 H          2.5230309648        3.1369670231        5.3628134615
 H          1.5265733313        4.3252733404        5.3130316365
 O          7.5908713826       -0.2966090249       -1.0085624291
 H          7.8157985651        0.6468178069       -1.0991542347
 H          6.6056666421       -0.3165474287       -0.8833085379
 O         -5.0303753471        3.4327604106       -5.1295721947
 H         -5.3541105393        4.0109019565       -4.4236887759
 H         -5.6817588365        2.7006514892       -5.2104804079
 O         -6.9488587093        0.5769433942       -2.3332831678
 H         -6.0275368445        0.3339531493       -2.0950649731
 H         -7.5054399418        0.1264633220       -1.6781399930
 O         -6.7293936372        2.3735547863        3.4112228055
 H         -5.9706497843        2.9771420839        3.3934015315
 H         -7.0395319672        2.3339765823        2.4935027698
 O          0.9594055611       -3.0978390701        4.5071382053
 H          0.4691038952       -2.9145648135        3.6675531021
 H          0.6475626632       -2.4087435862        5.1099575758
 O          7.8329287543        2.3881504777       -1.3053389891
 H          7.4165525773        2.6323950389       -2.1793187679
 H          8.6258831173        2.9183706971       -1.2328730749
 O         -5.9725727888        0.0518924928        4.3708102903
 H         -6.3929401324       -0.0245599288        5.2276114292
 H         -6.3459636136        0.8788834170        3.9593549969
 O         -3.4770548224        3.6705452238       -1.7802515173
 H         -4.3300414358        4.0497538455       -2.0573777024
 H         -2.8061421251        4.3089038539       -2.0845896081
 O         -5.0919357787       -5.5011455587       -0.2747726312
 H         -5.6783209694       -6.1745931976        0.0680094368
 H         -4.7236294539       -5.0230721100        0.5020206354
 O         -7.6437089979        3.0602933874       -1.8751941163
 H         -7.3376240046        2.1404684985       -2.1082054833
 H         -8.4983276024        3.1698277540       -2.2935208008
 O         -1.2973087161       -1.7012932999       -2.7019628132
 H         -2.2299119196       -1.9139851409       -2.8929937660
 H         -1.1334608208       -0.8055754587       -3.0609838009
 O         -3.6012340199        1.2475854745        3.9096276988
 H         -4.3801593496        0.7474830674        4.2140722294
 H         -3.9810354312        2.0656669431        3.5159956593
 O         -2.6262842917       -4.2598132979       -4.5324789001
 H         -2.7299271832       -4.8417618249       -3.7622100158
 H         -1.6676281178       -4.0867181991       -4.5916850783
 O          4.2920538081       -0.6461526381        5.1204082516
 H          3.8625128870       -0.8615154668        4.2570409318
 H          5.2376374246       -0.7444042625        4.9593522830
 O         -6.5106665032        1.1994771209       -5.0357286978
 H         -6.7929348909        0.9272576836       -4.1515134815
 H         -5.8011014824        0.5857783159       -5.2788380610
