  251
       -422.18331340
 H         -2.2968778999       -0.7838336750        2.1944545132
 C         -1.3447022303       -0.3323219057        1.9141446133
 H         -1.2296061782        0.6119766575        2.4413588507
 C         -1.2822383603       -0.1244949359        0.3973807659
 H         -1.3110615444       -1.1024467006       -0.0786902710
 H         -0.3356561839        0.3483675399        0.1514471475
 N         -2.3478293479        0.6814699629       -0.1738166456
 H         -3.2375656747        0.2219442442       -0.0315901921
 H         -2.4032870640        1.5745647169        0.3100206430
 O         -0.2865253874       -1.1877446442        2.3286197704
 H         -0.4422410070       -2.0225073396        1.8429728820
 O          3.4698685943       -0.0983187715       -1.8424533255
 H          3.7929498682        0.1621224368       -2.7305903892
 H          4.1801288432        0.0938174982       -1.2137266416
 O          1.7192553549        0.5225138774        0.7948606951
 H          1.2527947682        1.0576207725        1.4659831556
 H          2.2260855023        1.1667843959        0.2711797273
 O          1.2966356078       -3.8978109845        1.7367819225
 H          1.1709662728       -3.5856477747        2.6547959687
 H          0.6520314655       -4.6083629711        1.5795047023
 O         -0.1417184973       -1.6115197261       -2.1848840731
 H          0.2581949905       -1.9970887935       -2.9877252809
 H          0.4220846108       -1.9189746171       -1.4413149742
 O         -1.8338433188       -3.5654497823        3.7454859728
 H         -1.5901703294       -3.5555281479        2.8027184207
 H         -2.7987815983       -3.7000769148        3.7312197181
 O          1.5519275220       -2.0003714609       -0.1741353593
 H          1.3724342040       -2.6667956712        0.5168977563
 H          1.4934162638       -1.1208058033        0.2430329605
 O          3.9463939987        3.8293407030        2.0005220246
 H          4.7234587357        4.2902737553        1.6678304805
 H          3.6520489049        3.2732267505        1.2368143638
 O          1.2455320650        0.7688584658        3.4887572956
 H          0.5153786543        1.3806471570        3.7141264607
 H          0.8142960967       -0.0252683554        3.1484862397
 O          0.7045126962        5.2551332047       -0.5470440914
 H          0.4113244518        4.3212830283       -0.6531033418
 H          1.3546658800        5.3621014049       -1.2569597013
 O         -1.4726724744       -3.2200700119        1.0305274216
 H         -2.3644242754       -2.9172185832        0.7975683471
 H         -1.0639915102       -3.5944079391        0.2321912230
 O         -3.8956469889       -4.4994386487       -0.9891269639
 H         -4.7814825472       -4.1875350238       -0.7743651796
 H         -3.4025296963       -3.7166032695       -1.2987667431
 O          2.0217937322        4.7775504548       -2.8795721642
 H          1.5568487794        4.0175579768       -3.2466655991
 H          2.8906732359        4.7764605547       -3.2864871611
 O         -1.6038609543        5.4643147366       -2.2296568580
 H         -1.4278553817        4.7965972426       -2.9120551784
 H         -0.7642512076        5.5871731350       -1.7619557283
 O          0.9693220295        0.8082011873       -2.1320612966
 H          1.8726480787        0.5236061654       -1.8794176488
 H          0.4397581153       -0.0196512729       -2.1812283202
 O         -0.8079608208       -0.5049793090       -4.8942370378
 H         -1.0656161823       -0.0917381954       -4.0479837269
 H         -1.1746929953       -1.4079154509       -4.8619710212
 O         -4.4633746452       -3.5131171087        3.0822995122
 H         -4.7326158278       -2.8224430553        3.7355092416
 H         -4.2364864072       -3.0076261514        2.2660034321
 O         -4.0115966632       -2.1451077769        0.8385071041
 H         -4.7758435181       -2.4012666716        0.2927660119
 H         -4.2093867439       -1.2431994002        1.1755359131
 O          7.2617142620        2.4720822716        0.9341753194
 H          7.9579094275        2.1955094210        0.3197271828
 H          6.8938932129        3.3178651521        0.6269815132
 O          0.2140303744        2.6035544832        1.7100720619
 H          0.6906420327        3.4046328214        1.9906732753
 H          0.0806019603        2.6822703860        0.7461671126
 O         -1.3163160611        3.1543710198       -3.8127891718
 H         -0.4239701458        2.9024874063       -4.1165225920
 H         -1.9212896931        3.0084020484       -4.5511892104
 O         -2.0271304160        0.6857981003       -2.7955409415
 H         -2.1434222663        0.6653723137       -1.7973556287
 H         -1.8074662009        1.6053381133       -3.0211089245
 O         -0.2956988205        2.8407468207       -0.9038981054
 H         -1.2636471760        2.8655717624       -1.0200812604
 H          0.0766317471        2.0769281383       -1.3827112235
 O         -2.2612709152       -2.7938579556       -4.5501930884
 H         -2.5383972002       -2.6580839983       -3.6158191340
 H         -1.7378555635       -3.6032324937       -4.5266344652
 O         -2.7763288861       -2.2223837092       -1.9930401197
 H         -1.8499278202       -1.9092949544       -1.9483622530
 H         -3.3584317862       -1.4588712292       -1.8199286279
 O         -4.5540519837        0.2321237766        1.8219467526
 H         -4.1394422942        0.3801096314        2.6908210430
 H         -4.6540164060        1.1050100455        1.4031597670
 O         -7.1029772334        1.6872406876       -3.4225721098
 H         -7.0238312927        0.7415683110       -3.6183315701
 H         -6.1829824065        2.0129065830       -3.3500073985
 O         -5.1223225432        2.5870609827        0.5471824456
 H         -4.3483667776        2.9660598361        0.1002162326
 H         -5.8383037239        2.5110349030       -0.1000247735
 O         -2.4326116884        2.9675810945        1.7477712422
 H         -2.3874076290        3.8429377158        1.3363132511
 H         -1.5055654322        2.7540041174        1.9870454038
 O          3.4552105668       -1.9967392090        4.4929873595
 H          2.5972654393       -2.4376683327        4.5182278548
 H          3.4723918981       -1.4880694880        3.6507541894
 O         -0.9029039183        2.1568584259        4.3584723367
 H         -0.6147490016        1.9249735449        5.2585858488
 H         -0.8323111132        3.1189814624        4.2495859851
 O          0.1783271843        0.7978683490        6.4620906184
 H         -0.1711368566       -0.0030124540        6.0519147819
 H          1.1426517784        0.7605624005        6.3610320689
 O          4.9498080260        3.2311899862       -2.0769692362
 H          4.5771064674        3.2903896766       -2.9805067541
 H          5.5729303490        2.4672814607       -2.1318635296
 O          5.3676805073        0.6780780976        0.2224017409
 H          6.0572294833        1.3359747957        0.4341872110
 H          5.5607032001       -0.0669418078        0.8197503730
 O          3.6601493491       -0.5504993795        2.2602778994
 H          4.0869637078        0.2158229138        2.6930534121
 H          2.8694078541       -0.1789079454        1.8131970861
 O         -4.5039083762        2.1894481492       -2.8881214964
 H         -4.0180062636        2.1688170039       -3.7275271942
 H         -4.4147630170        1.3071461537       -2.4628146780
 O         -4.7000787301       -0.2564329674       -1.7057671393
 H         -5.2784763721       -0.5433204137       -2.4473733619
 H         -5.3017508515       -0.2126409838       -0.9384156193
 O         -7.4944077807        2.0954132858       -0.8659010678
 H         -8.2831719771        2.6164393491       -0.7226648162
 H         -7.4187711220        1.9527350378       -1.8482380230
 O          3.3411150239       -2.6963343304       -2.7743303660
 H          3.3492841772       -1.8716679286       -2.2512435100
 H          3.1821473062       -3.4521225666       -2.1603452384
 O          3.8627193572        3.0261102897       -4.5061539824
 H          2.9047937475        2.8568279592       -4.4826354662
 H          4.2492592678        2.1407405221       -4.6135202476
 O         -7.1118112613       -0.1869291504        2.8977893025
 H         -6.7030409554        0.7162695984        2.9823550105
 H         -8.0141461452       -0.0876881608        3.2026767745
 O         -3.7145235820        3.1417377845        4.0429520458
 H         -3.1545808096        3.7180051953        4.5652768962
 H         -3.2719712671        3.0827758608        3.1560700869
 O          8.3568864619       -1.3812056820        0.1503685516
 H          8.9751706126       -2.0344318546        0.4757099005
 H          7.6356787850       -1.3121654570        0.8475604952
 O          3.3882360989        2.3578899473       -0.1173261049
 H          3.7405499899        2.7861784361       -0.9214194045
 H          4.0859771356        1.6977851231        0.1076498369
 O         -1.7299628528        5.5357524575        0.9429875198
 H         -0.8396222315        5.5333176518        0.5635845590
 H         -2.2932264581        5.9521288161        0.2886157699
 O          4.2267233160       -2.0933458848        0.1226628491
 H          4.2543003538       -1.5611600914        0.9417948341
 H          3.2904876916       -2.0447967375       -0.1604114977
 O          6.2320661838       -1.4352324830       -1.6400298247
 H          5.5077133697       -1.7069431572       -1.0423870294
 H          7.0432314095       -1.5378194483       -1.1239234039
 O          5.4869546086       -1.9084494861       -4.2414065634
 H          4.7420783131       -2.4232257125       -3.8845048826
 H          6.0266129946       -1.7339787317       -3.4539468485
 O         -0.4949419959       -5.9653006395        1.2335109999
 H         -1.4581543038       -5.7779511324        1.3506923032
 H         -0.3399141777       -6.8219799719        1.6290804806
 O          4.5308033652        1.6197052099        3.6076482794
 H          4.0055187796        1.4526301788        4.4137745090
 H          4.2373559644        2.4572208790        3.2122359879
 O          3.9151306367       -4.4932344405        1.2284777150
 H          3.0120474418       -4.3371926004        1.5571576379
 H          4.1788002647       -3.6539054061        0.7909537930
 O         -6.3080952223       -2.9375891397       -0.4161303003
 H         -6.6143054499       -2.0154182936       -0.4804080102
 H         -6.6907619261       -3.2388305899        0.4397284783
 O         -5.2633318375       -1.4680933827        4.5571874241
 H         -4.5677546035       -0.7873725089        4.6017106196
 H         -5.9638588499       -1.0562808943        4.0261771890
 O         -2.9873365189        3.4662544049       -1.0660550323
 H         -3.5188622969        3.0655574792       -1.7800225994
 H         -2.6544965762        4.3105901677       -1.4243494123
 O         -0.8552047727        4.8572631872        3.6750751997
 H         -1.3831730427        5.1428977932        2.9198854765
 H          0.0596331569        5.0001895373        3.3950445768
 O          5.5416717302       -3.2934223135        3.1959912578
 H          4.8825285573       -2.9257397126        3.8110769959
 H          5.0558320392       -3.8789955307        2.5909940423
 O          2.6319323635       -4.7359961402       -1.2582131174
 H          1.7116134835       -4.5221626629       -1.0312045389
 H          3.1172806859       -4.8427954132       -0.4229091180
 O         -0.3401805752       -4.7238527076       -3.7788399728
 H          0.1083065510       -5.5417356662       -3.9938611423
 H          0.2858311831       -4.0033818702       -3.9989231234
 O         -0.1426472648       -4.4114052392       -1.0301255524
 H         -0.2753141962       -5.2346613895       -0.5414992756
 H         -0.3884590033       -4.5585000096       -1.9592481053
 O         -3.4092777782        0.4781920960        4.2849285061
 H         -3.4111409673        1.4520203942        4.3658295978
 H         -2.5146105302        0.1756039174        4.5015363708
 O          1.2572125636       -2.6254742685       -4.2721926408
 H          2.0868355000       -2.7037780151       -3.7186064662
 H          1.4554788408       -1.9610131555       -4.9395702318
 O         -7.0302738253       -3.1873256038        2.1201026756
 H         -7.1298458021       -2.2709102750        2.4014056141
 H         -6.2294176020       -3.5183697121        2.5669560818
 O         -1.4647924427       -1.2856970514        5.1998345505
 H         -1.9852609618       -1.4315528006        5.9906673537
 H         -1.6313292477       -2.0601688818        4.6212080407
 O         -5.9821888090       -3.5118280202       -3.1105632808
 H         -5.1397142747       -3.9737105722       -3.0848667000
 H         -6.2667286889       -3.4207531614       -2.1869520469
 O          0.8234855647       -2.9037846532        4.1915485200
 H          0.0904039417       -3.4440275752        4.5048773946
 H          0.4139258357       -2.0805399054        3.8776777788
 O         -3.1280723527       -5.6095443008        1.3975482816
 H         -3.6131479380       -5.0885649355        2.0460517496
 H         -3.3938128012       -5.2778342381        0.5172525162
 O         -6.7221521386       -0.3187698503        0.0863553577
 H         -6.6251495841       -0.2631845448        1.0515945350
 H         -7.1254264309        0.5204622503       -0.1954763644
 O          6.6113248576        1.1828338632       -2.3386720716
 H          7.4690956330        1.2951360574       -1.9110295551
 H          6.3398288693        0.2719013758       -2.1120933025
 O          8.9395897981        1.0955327301       -0.7543180732
 H          9.8695040346        1.0899698820       -0.9786256782
 H          8.7288705538        0.2001908803       -0.4061552744
 O         -3.6720301376       -0.3723589415       -4.6905022970
 H         -3.2741710222       -1.2070592258       -4.9666011364
 H         -3.1658620093       -0.0922376530       -3.8937663741
 O          1.5776000745       -0.1197086854       -5.7665816579
 H          0.6441941413       -0.2655997867       -5.4357853477
 H          1.5339337731       -0.1171655043       -6.7220502371
 O          5.8930174287        4.6550027873       -0.0146214123
 H          6.2713794657        5.4698293938       -0.3420071554
 H          5.5096697156        4.1929574518       -0.7931903324
 O          2.8808127136        0.5482902397        5.5221666455
 H          2.2708441804        0.6338819071        4.7504353929
 H          3.2261869247       -0.3567258697        5.4586165728
 O          7.1453541253        0.9594194469        3.2997053303
 H          7.3414988009        1.5637578458        2.5699043117
 H          6.2536616639        1.2149686787        3.5965783982
 O          6.4632544026       -1.1694803780        1.8880252982
 H          6.1694121000       -1.9640274793        2.3944318374
 H          6.7544259876       -0.4904799019        2.5421005934
 O          1.4943603373        4.9625626887        2.1226984820
 H          2.4192775250        4.6594856202        2.2002658153
 H          1.3686801418        5.2382056940        1.2000220839
 O          4.0764846192        0.3140136912       -4.4240854061
 H          3.2848977854        0.0591239918       -4.9136362052
 H          4.6999311037       -0.4529264406       -4.4766100069
 O         -6.1684764589       -0.9177588823       -3.8279420029
 H         -6.2336323274       -1.8858235988       -3.7148305800
 H         -5.3747028608       -0.7609062406       -4.3719944464
 O         -3.3393058743        2.1620359118       -5.4573449603
 H         -3.9892951974        2.4321468954       -6.1051349322
 H         -3.3795618933        1.1833516847       -5.3990216227
 O         -6.2222535971        2.3135725018        3.0778871964
 H         -5.4776174764        2.5660205677        3.6428134344
 H         -5.9373760359        2.5622339519        2.1838311271
 O          1.2098490605        2.2489339261       -4.2885865268
 H          1.1513649971        1.7195340985       -3.4469938377
 H          1.3318702332        1.5713306401       -4.9706877113
