  191
       -320.31767120
 H          1.0125295972       -1.3458821559       -1.1996795961
 C          0.6517781083       -1.7411759454       -0.2438837725
 H          0.0103351178       -2.5968376670       -0.4379808963
 C         -0.1306358672       -0.6385879732        0.4730622351
 H          0.5706963525       -0.0573160936        1.0758514168
 H         -0.8668203773       -1.0846295641        1.1382026399
 N         -0.8385784442        0.1867455134       -0.5051169945
 H         -1.4780023710        0.8132164327       -0.0241194100
 H         -0.1809777494        0.7616420823       -1.0177648490
 O          1.7294292874       -2.2435507547        0.5146320187
 H          2.3045846753       -1.5040183956        0.8110079598
 O          3.5929146595       -2.8296844467       -1.5513056993
 H          3.4963575448       -1.8916013440       -1.2787010957
 H          2.7343215164       -3.2379726410       -1.4104559957
 O          3.3725405071       -0.1918931650       -1.0701667601
 H          2.7858531075       -0.0254309649       -1.8349104735
 H          3.0117524122        0.3560564459       -0.3444251907
 O         -3.2048474752       -2.6025820496       -0.1283320485
 H         -2.6487178576       -2.2554230420       -0.8734448801
 H         -3.7697523933       -3.2707243364       -0.5343933815
 O         -3.2507214380        1.3076079404       -3.1434867094
 H         -3.4797358429        2.2540387033       -3.1462062246
 H         -3.5063933629        0.9824779321       -2.2568102709
 O          2.7273520400        5.3869233977        3.2164768564
 H          2.3471981753        5.5686435261        2.3461069532
 H          3.6339173154        5.0903369088        3.0565753702
 O         -6.5250688432        0.7619215661       -2.1933995355
 H         -5.6649017788        0.7640265290       -1.7231212016
 H         -7.1848920429        0.6711681834       -1.4935895832
 O          3.6810851993        1.9092157571       -3.6675222205
 H          4.2927049138        1.3326671678       -4.1506813089
 H          2.9113532415        1.3326303680       -3.4945227030
 O         -0.6164594384        1.3962256664       -3.5386231438
 H         -0.3113210782        2.0686410474       -2.9057376126
 H         -1.5823263362        1.3270788493       -3.3888096813
 O          3.3409722420       -0.4515508118        1.7454960015
 H          3.7822320237       -1.2124874430        2.2054085217
 H          2.5630939769       -0.2481465716        2.3087639149
 O          1.2848500010       -0.1007900263        3.3630252373
 H          1.5103769139        0.1407768134        4.2615758090
 H          0.9030326754       -1.0041492458        3.3739283149
 O         -5.6577394917        2.9503528787        0.5575985757
 H         -4.9227064683        3.5669666074        0.4549037001
 H         -5.3990023001        2.3551323343        1.2880666125
 O          1.7106058568        0.0920816268       -3.1251943512
 H          1.6165492537       -0.7771101582       -3.5758984415
 H          0.8583689566        0.5433403237       -3.2663939348
 O         -0.9122853563       -0.8561945824       -5.2611690937
 H         -0.7613124119        0.0049209545       -4.8486166410
 H         -1.8244027374       -1.0920809811       -5.0634082504
 O         -4.5957056914       -4.2472671602       -1.9666780342
 H         -5.1026361817       -3.4987679767       -2.3235096914
 H         -5.1597820653       -5.0190253253       -2.0119118894
 O         -4.1903893637        0.4844555026       -0.7991268199
 H         -4.5364549715       -0.3207430969       -0.3769225500
 H         -3.7302208028        0.9963946539       -0.1057954097
 O         -0.1725510942       -5.1856384197       -0.1345432266
 H          0.7452973741       -5.2942553131        0.1462244560
 H         -0.1538043418       -4.8150283877       -1.0339534037
 O         -1.5202944059       -3.6889529483        1.6556399596
 H         -2.1101261426       -3.2668804861        0.9938224386
 H         -1.0273620977       -4.3549690325        1.1325578575
 O         -1.6737073928       -1.5123775268        5.1425757407
 H         -1.5709958837       -0.7130140653        4.5711234441
 H         -1.7465565881       -1.2026384718        6.0445545183
 O         -1.4905574578        0.5207500291        3.4381613445
 H         -0.7218074047        0.9632633517        3.0141635155
 H         -2.0204585697        0.1325838201        2.7163557127
 O         -2.9096765530        2.7415799189        3.5561651994
 H         -2.3239789221        1.9699614740        3.7297133332
 H         -2.3990213830        3.5271612193        3.7523249900
 O         -0.5361195505        4.2658643819        0.4985030017
 H          0.2335520165        4.8499351985        0.5971824235
 H         -0.4270775862        3.5745460432        1.1922847956
 O          0.4788441174        2.8301659534       -1.5091020977
 H          1.1624450454        3.4054474994       -1.9176032560
 H         -0.0138396372        3.3886342997       -0.8674970878
 O         -3.2036310235        4.3790542816       -0.2264537737
 H         -2.2839209222        4.6327990203       -0.0550104753
 H         -3.3175491212        4.3089747117       -1.1906399802
 O          2.0572413074        1.7050887265        0.3646369572
 H          2.7481645208        2.3986737622        0.3956323223
 H          1.4658376505        1.9930952853       -0.3626485845
 O         -3.3470321725       -2.9863901128        3.5428923257
 H         -2.7099104323       -3.4482673844        2.9635930611
 H         -2.8263767901       -2.5919811093        4.2625586192
 O          6.9301648000        2.7822895558        0.9043949191
 H          6.6870366390        1.8534779678        1.0731386089
 H          6.7505877244        2.9364680577       -0.0279215910
 O          5.4648194023        2.5205348664       -1.6566169681
 H          4.8565164291        2.4597161111       -2.4170968410
 H          5.8157639866        1.6125701333       -1.5807613839
 O         -5.8997192980       -2.7411506685        2.5948119129
 H         -6.3642395445       -3.5694527495        2.7146400145
 H         -5.0180864979       -2.8560379430        2.9955736035
 O          3.9629840439        1.6929454543        3.4764079991
 H          3.6762719061        1.2189737536        2.6809482971
 H          4.6119363423        1.0846547730        3.8952454977
 O          6.0132791916        0.2282205008        1.3033928973
 H          5.0598610350        0.0617607779        1.2349544531
 H          6.4508414001       -0.5190517393        0.8641625251
 O          3.8363773612        3.6593628328        0.1068983199
 H          4.2881941060        3.8188673227        0.9797113993
 H          4.5172247240        3.2427432939       -0.4695324039
 O          5.0201229224        3.9222963564        2.4160437724
 H          4.6953251808        3.1395526951        2.9134318057
 H          5.8911226598        3.6586678952        2.0569448701
 O         -3.5549571330       -1.2189357439       -4.0438447392
 H         -4.3589832964       -1.5211514301       -3.5798687510
 H         -3.5754947773       -0.2486203300       -3.9700594768
 O         -7.2914568447       -0.2497964952        2.9368375786
 H         -6.5241152305        0.3433456504        3.0140712566
 H         -6.9224210069       -1.1427346346        2.9147857830
 O         -2.7161196501        1.9882772169        0.8528425766
 H         -2.8521417760        2.8349544429        0.3827897931
 H         -2.7524284007        2.2248718300        1.7920158673
 O          3.9179484749       -2.4439257457       -4.2583496500
 H          2.9738889801       -2.4230933074       -4.4850394569
 H          3.9438002893       -2.6933666693       -3.3171611053
 O         -2.6143194720       -4.1581033358       -3.9546747672
 H         -3.2206386743       -4.2922223646       -3.2095702526
 H         -2.8187801830       -3.2849230838       -4.3026743347
 O         -7.5102052108        0.6713189949        0.4216840696
 H         -7.6946112764        0.3993765437        1.3453528142
 H         -7.0487748603        1.5174007521        0.4930212472
 O         -5.0060231413        1.2074685833        2.5750579352
 H         -4.4087831438        0.4933217153        2.2686759018
 H         -4.4696253295        1.7889379550        3.1281176499
 O          1.1848446797       -2.2512109331       -4.2791111265
 H          0.7625424124       -2.9134557275       -3.6930118132
 H          0.4568944583       -1.8744082799       -4.8110441494
 O          2.4737587157       -4.8125465637        0.8773675518
 H          2.1966176260       -3.8802767798        0.7817497062
 H          3.4290315435       -4.8176454848        0.7601305479
 O         -6.3406868288        3.4638003149       -2.1077692929
 H         -6.5213886079        2.5394817486       -2.3680929600
 H         -6.2743543357        3.4371358542       -1.1409246164
 O          0.1486383849        2.3313668018        2.2454983858
 H          0.8400808297        1.9799050946        1.6537717032
 H          0.6494955084        2.6461105470        3.0395845097
 O          7.1595969469       -1.7715008687       -0.2236508202
 H          8.1053141821       -1.7520740419       -0.3663094768
 H          6.7479169616       -1.2525004422       -0.9538543483
 O          2.5768794996        4.1808100578       -2.4532110827
 H          3.1649683687        4.1414250058       -1.6885636272
 H          2.9444994416        3.5607688730       -3.0993950772
 O          1.6900933737        3.0935783079        4.2305491390
 H          1.9754147168        4.0024841867        4.0079656003
 H          2.4894812283        2.5536964634        4.1136159050
 O          5.7199255280       -0.2401133995        4.0176590879
 H          6.1326166921       -0.0427372541        3.1605080918
 H          5.3310612954       -1.1201728059        3.9051367386
 O          1.9039113588        5.5346303331        0.4980072510
 H          2.5760110959        4.8524188824        0.3057547839
 H          2.0379819081        6.2348453442       -0.1411932831
 O         -0.2710130735       -3.8286894501       -2.6206073982
 H         -0.7546762746       -3.0159860491       -2.3544423943
 H         -0.9153702115       -4.2679239784       -3.2030912266
 O          4.4633936615       -2.5072394857        2.9088178209
 H          4.8087037607       -2.9772930076        2.1247107713
 H          3.7669665022       -3.1000924911        3.2781163619
 O         -5.7779272647       -1.8488665358       -2.5342685190
 H         -6.2353221359       -1.0281316300       -2.7820527925
 H         -5.7400705637       -1.7928547029       -1.5574970297
 O          2.4530637655       -4.1175428250        3.5614152359
 H          2.4014622764       -4.6122549499        2.7261601454
 H          1.6478774419       -3.5737089257        3.5849286211
 O         -5.8250414581       -1.4317722375        0.1398547179
 H         -5.8141628629       -1.9424003382        0.9631664279
 H         -6.4958090773       -0.7257293563        0.2552200671
 O         -3.8933014288        3.9371673357       -2.8507788842
 H         -4.8523890072        3.7969319577       -2.5946664807
 H         -3.8956207937        4.5838047135       -3.5559620303
 O         -3.3164940118       -0.8087093883        1.9095738116
 H         -3.4218184661       -1.5133780197        2.5759083577
 H         -3.3191342386       -1.2865307651        1.0606113146
 O         -1.7618477198       -1.6732831777       -2.0789791542
 H         -2.3528516645       -1.4183737510       -2.8116964158
 H         -1.4477894742       -0.8505065004       -1.5954340482
 O          5.1850445400       -3.6081541636        0.5207631340
 H          6.0300557244       -3.1662462699        0.3637076877
 H          4.6420917214       -3.3674071171       -0.2551084647
 O          5.2458709037       -0.2142784718       -4.5289697670
 H          4.6974533380       -1.0463806430       -4.4646592858
 H          5.8214545769       -0.3364154976       -5.2830099237
 O          0.1923176560       -2.5551707335        3.4130010413
 H         -0.4123492243       -2.4377003742        4.1585740158
 H         -0.3396682833       -2.9349304995        2.6825051239
 O          5.9039271103       -0.1406790007       -1.8931183290
 H          4.9869181152       -0.2018733464       -1.5434013563
 H          5.8066952088       -0.2085870474       -2.8609463374
