  86
       -142.08462856
 H         -0.4717973711        1.1656492243       -0.5785602450
 C         -0.1049651279        0.1750750569       -0.3048371138
 H         -0.1257348132       -0.4626798726       -1.1874082231
 C         -0.9971172857       -0.4129870574        0.7904486791
 H         -0.7755394733        0.0938993909        1.7354169738
 H         -0.7847433498       -1.4742546803        0.9107945557
 N         -2.3946959920       -0.2825717834        0.4081573157
 H         -2.9818264317       -0.7546430091        1.0866599884
 H         -2.6616803795        0.6978087610        0.4119965876
 O          1.2511222554        0.2537732943        0.1062536639
 H          1.3582276066        1.0752019652        0.6397593463
 O          2.8276582246        0.8302912110       -2.0144653434
 H          3.6863437904        1.1335339076       -1.6257152407
 H          2.2771729199        0.5944341538       -1.2395949727
 O          2.5688394118       -1.7277038516       -2.8744849457
 H          2.8087611810       -0.7985146138       -2.6967313017
 H          1.6158571946       -1.7172605813       -3.0300760588
 O         -2.4457637852       -3.6112149202       -0.2978437698
 H         -1.5162085506       -3.6781621839       -0.5574992386
 H         -2.8344538175       -2.9286091791       -0.8687387617
 O         -0.3222267142       -1.8333635214       -3.0852904959
 H         -0.1818811782       -2.4389318807       -2.3196316981
 H         -0.5695620371       -2.3860171430       -3.8282639808
 O         -3.0348068482       -1.3387723124       -1.8763830804
 H         -2.7294707937       -0.9360814070       -0.9925172560
 H         -2.3020495294       -1.2094736603       -2.4868100836
 O          1.3005609174        2.5778845342       -3.2297144318
 H          1.9235510975        1.9410709771       -2.7888983834
 H          1.8039709135        3.0270882233       -3.9083293628
 O          3.7447214135       -2.8457839638       -0.6837065997
 H          3.0076082942       -2.8325462173       -0.0532245823
 H          3.3844888793       -2.5097307005       -1.5292624445
 O          4.9664492133        1.5029298944       -0.6446402488
 H          4.6394667953        2.0720429597        0.0710353000
 H          5.1159367853        0.6329245179       -0.2335153249
 O          1.5880514831       -2.3339104151        0.9379357048
 H          1.1443341543       -2.4403229959        1.8002516541
 H          1.6152183004       -1.3714780856        0.7701295365
 O          0.0464395729       -2.4551091124        3.1874067613
 H          0.2120675195       -3.0537254367        3.9162368295
 H         -0.8831291549       -2.6429226516        2.8885929053
 O         -4.7292335052        0.7526537790       -1.7340576752
 H         -4.1917787558       -0.0645102238       -1.8564509428
 H         -5.4582324792        0.7002601492       -2.3519662905
 O         -2.3878263529       -3.0346728930        2.3682395371
 H         -3.1129989643       -2.4068502172        2.4984709958
 H         -2.4538523680       -3.3234644014        1.4344187515
 O         -2.8407291584        2.5774073331        1.2492514636
 H         -2.0647554095        2.5300393307        1.8270518524
 H         -2.5364810939        2.8200049811        0.3659763908
 O         -4.5546443832       -1.2147609623        2.3241065167
 H         -5.3605276733       -1.7106532084        2.4691452211
 H         -4.8344028606       -0.3589931444        1.9214314504
 O         -0.5904759353        2.3499879148        2.9806358327
 H         -0.7337961446        2.8568044762        3.7801530872
 H         -0.1224673781        1.5208469019        3.2632428680
 O          0.8010293746        0.2045101246        3.6451107116
 H          1.6737735497        0.2199752131        3.2128287515
 H          0.4783956122       -0.7058353027        3.5469031241
 O          3.1850215591        0.2641055272        2.2827405903
 H          3.7781933137       -0.2802410982        1.7413795237
 H          3.4873882185        1.1723741235        2.1556956170
 O          3.8042282058        2.9042020070        1.4624015792
 H          4.0564538882        3.7690414355        1.7851360988
 H          2.8445274795        2.9465344474        1.2525349806
 O          1.1920126180        2.7861491740        0.9920855796
 H          0.7489516336        3.2265194670        0.2289762678
 H          0.5498664950        2.7767210230        1.7248520976
 O         -2.3900409731        2.3095464501       -1.5743489887
 H         -1.9338724046        1.8262780464       -2.2912993262
 H         -3.3029492632        1.9897232668       -1.6127173939
 O         -5.1892502524        1.0572288056        1.0411212358
 H         -5.1235437842        0.9387664056        0.0797639795
 H         -4.5012642523        1.7026172816        1.2662968525
 O         -0.9474915286        0.9790757293       -3.4800982043
 H         -0.1637828279        1.5538394741       -3.5029449749
 H         -0.6198633086        0.0769422386       -3.3905414551
 O         -0.0579592689        3.7726590449       -1.1344049322
 H          0.4491065676        3.4696481195       -1.9069132300
 H         -0.9588707248        3.4497579855       -1.2819949001
 O          0.2717564986       -3.4690539728       -1.0522206633
 H          0.8750619703       -4.1563202448       -1.3403672690
 H          0.7253606645       -3.0185165517       -0.2920681059
 O          5.0457783381       -0.9556143099        0.5925367250
 H          5.8617216408       -1.3395519747        0.9129282525
 H          4.6021485534       -1.6637551906        0.0509045508
