  84
       -142.50908266
 O         -0.5350837714       -1.4930976381       -2.7803716942
 H         -0.8863168345       -0.5946000266       -2.8586733169
 H          0.4265427108       -1.4073714172       -2.7800480101
 O          4.9957149105        0.0405584857        1.3572455878
 H          4.2738079299        0.6841415125        1.4195103250
 H          5.4652128148        0.2453526142        0.5305889324
 O          4.6234449976       -1.9083382278       -1.8945795339
 H          4.5146332298       -2.2739324024       -1.0034554130
 H          5.2063589760       -1.1405172350       -1.7828276422
 O         -6.2794612752       -0.4122804056        1.3391631792
 H         -5.6120115857        0.0267972585        1.9309975512
 H         -7.0681307215        0.1274429160        1.3991782563
 O         -1.4324744476       -3.8136040432       -1.6115890788
 H         -1.1540823668       -3.0240822349       -2.1087748970
 H         -2.3098791912       -3.6020177037       -1.2221496098
 O          3.3970761927        1.4695087959       -1.4125463544
 H          3.1563239509        1.5953074343       -0.4683355733
 H          2.8984461014        0.6813253328       -1.7186527027
 O         -5.0591328803       -0.9363592677       -0.9429001240
 H         -5.5241750538       -0.7386594249       -0.0921148085
 H         -5.7285491102       -1.2555012547       -1.5487458230
 O         -3.5717501509       -3.1048214089       -0.1740812832
 H         -3.1701740182       -2.8683135460        0.6743092536
 H         -4.0865575740       -2.3294470558       -0.4620179930
 O         -4.5442815695        0.8916292616        2.8138430005
 H         -4.0292250756        1.5288961678        2.2888701746
 H         -3.8930346598        0.3103830560        3.2504885188
 O          5.8368891158        0.5191008033       -1.2369806765
 H          4.9575092953        0.9570247642       -1.3856037443
 H          6.4898564893        1.0487117778       -1.6936092958
 O         -1.3161396553        1.2582782683       -2.7588556464
 H         -1.8269272490        1.0023638087       -1.9003866595
 H         -1.9752305831        1.5688681353       -3.3802700624
 O         -0.0809125283       -4.1197093298        0.5311985677
 H         -0.6008355682       -4.0140545991       -0.3401066526
 H          0.1721547507       -5.0423482966        0.5665458348
 O         -0.9420130856        3.2957086109        2.7777424055
 H         -0.7060559542        2.4855924914        3.2570017465
 H         -0.2074870841        3.4888951126        2.1684800663
 O          2.1961526783       -0.8434949232       -2.1575131816
 H          1.8703084763       -1.2540912654       -1.3317467925
 H          3.0627712271       -1.2886386304       -2.3013204109
 O         -2.5412506846       -0.6875473471        3.7984727219
 H         -2.2956834385       -1.4390482352        3.2420302348
 H         -1.7507215119       -0.1370541975        3.8987273621
 O         -0.1504835928        0.8001790435        3.7817142527
 H          0.5917288222        0.6849967692        4.3756044087
 H          0.1237886602        0.4596249156        2.9057834619
 O          1.0280596283        3.7845255220        0.8875525523
 H          1.3060926922        4.7009842154        0.8697066335
 H          0.6090937888        3.6195211252       -0.0027531172
 O         -1.9476603562       -2.9468754720        2.1548413833
 H         -1.2175339632       -3.3278993472        1.6274014187
 H         -2.3462144443       -3.6746539492        2.6352171426
 O          4.2040809342       -2.4102800414        0.8527786028
 H          4.6828412767       -3.0007548162        1.4340464750
 H          4.4927161186       -1.4872043663        1.0931094318
 O          2.2192251373        3.3617223730       -3.0357740920
 H          2.8084970389        2.8623577743       -2.4464875348
 H          1.8921973648        2.6887782478       -3.6623189924
 O          2.7260846999        1.6938635937        1.1681179009
 H          2.0112611887        1.0377519001        1.2841841993
 H          2.2606714845        2.5522245337        1.1650731108
 O         -3.1057076084        2.7549836288        1.3434640600
 H         -3.6003198516        3.5711083388        1.2695958719
 H         -2.3171580698        2.9665683423        1.9025556617
 O          0.0401264128        3.4564705853       -1.5130192827
 H         -0.4621828685        2.7167812005       -1.8853892865
 H          0.8298401507        3.5553939784       -2.0986169801
 O          1.6090192119       -2.0924222150        0.1682062518
 H          1.0494217138       -2.8871774958        0.2891200863
 H          2.5097155297       -2.3101037761        0.4706763387
 O          1.1686145905        1.0775163342       -4.0844868567
 H          1.6133926594        0.3666919661       -3.6072658955
 H          0.2844536405        1.1484531219       -3.6964853393
 O          0.5060922557        0.0859798587        1.2001767213
 H          0.8663074776       -0.7679009514        0.8697819267
 H         -0.2982666753        0.2448547959        0.6967775949
 O         -2.5576994246        0.4864522651       -0.5166169047
 H         -3.3386311677       -0.0586992259       -0.6953103970
 H         -2.8314582363        1.1786944204        0.1037775496
 O          2.5697340174        0.4474294762        4.0883281818
 H          3.3728612434       -0.0670144358        4.1770102474
 H          2.7059501731        1.0542754777        3.3530032061
