  222
       -371.47417628
 H         -0.5394016577       -2.1221026048       -0.5830739854
 C         -0.8573985241       -1.2828216520       -1.1940237164
 H         -0.9478551633       -1.6135920691       -2.2284669864
 C          0.1667048566       -0.1639220947       -1.1188473787
 H         -0.2475098724        0.7506317116       -1.5376669506
 H          1.0333747738       -0.4699649334       -1.6867538929
 O         -2.1093656080       -0.8689515460       -0.7073032712
 H         -2.5194795235       -0.3612005865       -1.4242444182
 N          0.5921352945        0.0979190082        0.2665905573
 H          0.7599692012       -0.8225984072        0.7458962065
 H         -0.1280080972        0.6403005628        0.7760741990
 H          1.4712667715        0.6600143136        0.2212912165
 O         -2.6335282736        2.0783969855       -0.8336861939
 H         -3.3425829071        1.4108549110       -0.8148011405
 H         -2.0962464876        1.9162224035       -0.0243295382
 O          2.4399603920       -2.6876848563       -1.4846315867
 H          2.6297511564       -1.7585717894       -1.7114140190
 H          2.8393998458       -3.2177901257       -2.1983001707
 O          8.7493299611        0.8272237518       -0.2149034302
 H          8.2676066807        0.0857594150        0.1938677068
 H          9.6007384467        0.8768908869        0.2198853005
 O         -5.9855678619       -2.2480295357        1.8179202755
 H         -5.6295719522       -1.6331402547        2.4760199220
 H         -6.6467517056       -1.7453918914        1.3073620875
 O          3.2552906140       -0.6632297426        0.6839368392
 H          3.9941669876       -0.4897749835        0.0713984476
 H          3.2299721679       -1.6166964815        0.8224579976
 O          0.5773780634       -4.2301700292       -4.0997627486
 H         -0.3359886308       -3.9613392150       -4.2761844911
 H          1.1282348067       -3.5335002752       -4.4728786640
 O         -2.3694005391       -4.0032648809       -1.7413550685
 H         -2.9306032612       -4.6425184720       -1.2867824966
 H         -1.4471557375       -4.2050247364       -1.5074435704
 O          5.3467534271       -0.3978118206       -0.9593115332
 H          6.0873717038       -0.4826293947       -0.3258625402
 H          5.4030018989       -1.1883378545       -1.5286616926
 O          4.2025366057       -2.2843711538        3.2900769239
 H          3.3139002778       -2.1316818476        3.6485809487
 H          4.0708633868       -2.7164063362        2.4354872705
 O          3.5666112085       -4.0098264390       -3.5556213548
 H          3.1424049250       -4.8369032636       -3.7921625799
 H          3.2410723658       -3.3433675864       -4.1924763851
 O         -4.2411167665       -4.3352518339        2.3201276512
 H         -4.1768744314       -4.9802807979        1.5968234918
 H         -5.0386445566       -3.8120657000        2.1539987364
 O         -1.2897764766        5.3018875672       -0.6734315705
 H         -0.8060712547        4.4452782342       -0.5996622680
 H         -0.9605548070        5.6930599364       -1.4878917366
 O         -3.6320476830       -2.8977475094        4.6540163452
 H         -4.1350385241       -2.0978428512        4.4668357639
 H         -3.8991515053       -3.5513654515        3.9935209354
 O          0.2786355164        5.0963347998       -2.9266739394
 H          0.6329961585        5.1902212559       -3.8114073786
 H          1.0485263809        4.9853293561       -2.3263556665
 O         -0.3864752465        5.5424988538        1.9030296290
 H         -0.8645256332        4.8041308576        2.3115390069
 H         -0.7931167496        5.6691562918        1.0307479625
 O          2.4942804842        4.7703619947       -1.4146291099
 H          2.7893046477        4.0196174065       -1.9996702682
 H          3.1345960487        5.4699443923       -1.5475193229
 O          2.3475955924       -4.8279292640        2.6803266470
 H          2.7413932434       -4.4855843582        3.4856229078
 H          1.3807480499       -4.7852229446        2.8100144362
 O         -1.9136691210       -2.9504558994       -4.1391556342
 H         -2.7525198510       -2.8438471381       -4.5916461085
 H         -2.1496309735       -3.3039575212       -3.2517404464
 O          2.5870067576        1.7779568014       -0.5189126895
 H          3.3670866235        1.9130916070        0.0508317167
 H          2.8714856150        1.1623107936       -1.2124794472
 O          4.1507845380        3.7852922365        2.9244034472
 H          4.4544836681        3.2158645366        2.1930353383
 H          3.4888365414        4.3642787177        2.5237997571
 O         -1.4233471885        1.5593416978        1.4602141732
 H         -1.5152206576        2.2633128480        2.1188553801
 H         -1.8320009502        0.7392383237        1.8281901647
 O         -2.2556202358        0.4111167873       -5.9005535542
 H         -2.6479862223        0.2727241702       -6.7617443887
 H         -2.4662871305        1.3511547677       -5.6454606299
 O          5.7127538951       -2.6520038203       -2.4015041244
 H          5.0580428003       -3.2492538591       -2.7914547862
 H          6.0508408404       -3.0932111328       -1.6062935383
 O         -4.3112637514       -2.3322390710       -0.2791331401
 H         -4.9042620765       -2.4610716321        0.4857252981
 H         -3.4206909786       -2.6399943912       -0.0357327865
 O          0.3436285508       -4.4460124922       -1.3888732797
 H          0.4543821559       -4.5564799213       -2.3517239817
 H          0.9626682869       -3.7353051430       -1.1571335518
 O          1.5600991869       -1.8010662586        3.8319170849
 H          1.6957247127       -0.8525069313        3.6184061876
 H          0.6733034356       -1.8556422874        4.2180089305
 O         -1.9391816289        3.5278061585        3.2407078389
 H         -2.8555276389        3.8208158054        2.9787799090
 H         -1.6820636599        3.9579447967        4.0597040292
 O         -5.0308212617        1.8090092481       -3.2209030160
 H         -5.6834662529        1.0921354734       -3.1620890242
 H         -5.3425799863        2.5023166880       -2.6135883891
 O          4.0701216873        1.6702929059        4.5807558390
 H          4.1388983179        2.5386340043        4.1322110960
 H          3.3549209692        1.7554723812        5.2289190896
 O          1.6051687197        1.9242784551        5.8779461236
 H          1.3923238075        1.9640623970        6.8098884945
 H          1.2389686581        2.7408784613        5.4655144473
 O          2.1429973275        4.8684007740        1.3466695499
 H          1.2745602969        5.2883769858        1.5302643488
 H          2.2329920285        4.8138229812        0.3816253552
 O          7.1363868580       -1.0253644253        0.9400149140
 H          6.9064721925       -1.9623482557        0.8205780473
 H          6.6458213478       -0.6984252469        1.7177511467
 O          0.1330548557        3.0508250817       -0.3947389116
 H          1.0368236259        2.8763288295       -0.6918430845
 H          0.1532003690        2.8889670445        0.5610809187
 O         -7.5584354172        2.2194387316        0.2102151287
 H         -7.0333744020        2.7375346073       -0.4321778504
 H         -8.3342291006        2.7379608169        0.4238265848
 O         -3.7810662312        4.3638810752       -0.3249534194
 H         -3.3651033192        3.4788061764       -0.5042228485
 H         -3.0417655200        4.9787989995       -0.4795910161
 O         -4.5707613355       -2.0598222650       -2.9812681663
 H         -3.8759656352       -1.3731596794       -3.0784860916
 H         -4.4253247935       -2.4311208808       -2.0937346702
 O         -2.0240089707       -3.2788146887        1.1224898445
 H         -1.6685742297       -4.1146864081        0.7864165173
 H         -2.7077188457       -3.5394986075        1.7633282097
 O         -2.9358609094        2.7348061651       -4.9147159029
 H         -2.2377657538        2.8112371313       -4.2289366563
 H         -3.7592783910        2.5628316400       -4.4384464180
 O          0.7041305907       -2.3773325798        1.3627060678
 H         -0.2222661954       -2.6444905966        1.4502982188
 H          1.0557105901       -2.2860098383        2.2727297907
 O         -0.1186222246        0.5476611000        4.1413490165
 H          0.0094771438        1.1321772919        3.3873077736
 H          0.4914190966        0.8677326739        4.8232579258
 O         -5.3572121470        1.5380141596        1.6927096227
 H         -4.9995550599        1.0964025658        0.8907594713
 H         -6.2582028782        1.7877508254        1.4428390068
 O         -2.7329276468        1.0816562462        4.5700584703
 H         -2.6476783359        1.9534819051        4.1623512384
 H         -1.8353306833        0.6978532124        4.5284453099
 O         -4.5947713721       -0.3922602412        3.3883817519
 H         -5.0036063085        0.3299910160        2.8699614533
 H         -3.9925222893        0.0893461235        4.0026864967
 O          4.9007862928       -0.6065132761       -4.2610902586
 H          5.3267760677        0.2415170592       -4.0670940982
 H          5.4540599484       -1.2909426441       -3.8641516102
 O          2.4210547367       -2.0413119153       -5.0170016480
 H          1.5868489831       -1.5441023103       -5.0608739679
 H          3.1399047946       -1.3999886054       -5.0621452275
 O         -0.3259356388       -4.7881551495        3.1598587486
 H         -0.6262591430       -3.8658480419        3.3937037512
 H         -0.6103820329       -5.3488486066        3.8813168773
 O          3.1768180102        3.0503498134       -3.2421249082
 H          2.4868788455        2.4465320096       -3.5470141058
 H          3.9799622087        2.5164744167       -3.0800096948
 O         -1.0595422586        2.7112635286       -2.9847419198
 H         -1.5494246598        2.5112822039       -2.1631509113
 H         -0.6498765666        3.5885221601       -2.8658798214
 O         -3.5243101780       -5.8989360997        0.1100561079
 H         -2.5792624160       -6.0087726213        0.3399815967
 H         -3.8652319758       -6.7718628041       -0.0837207943
 O          5.4478332723        0.0058891090        2.7748316892
 H          4.9754831325       -0.8344570128        2.9889704766
 H          5.3407478053        0.5600523571        3.5580879018
 O         -2.3033925130       -0.7875574582        2.0647451338
 H         -3.2106064497       -0.7712700103        2.4304442124
 H         -2.3324908550       -1.0955511656        1.1442934853
 O         -6.0337109391        3.7241226030       -1.5089101900
 H         -5.2144706038        4.0333961790       -1.0436367826
 H         -6.4096155481        4.4963923372       -1.9326729840
 O         -4.6368663178        0.2834683775       -0.5501745831
 H         -4.4307030527       -0.6771300106       -0.4277051264
 H         -5.3831364887        0.3081868256       -1.1563854768
 O         -4.3061813946        3.9994569833        2.3105774697
 H         -4.6975501233        3.1111722167        2.2289519203
 H         -4.1509737460        4.2876900102        1.3904275718
 O         -1.1202405288       -2.4003086690        3.9062289461
 H         -1.3921971709       -1.7592397481        3.2191025155
 H         -1.9479716610       -2.5810477285        4.3961788127
 O          2.4109507471        0.5468526450        2.8385158125
 H          2.8561797290        0.1498513856        2.0591054542
 H          3.1059860095        0.8761844761        3.4495536186
 O         -0.1385207272       -0.9663488624       -4.8988919550
 H         -0.6926771326       -1.6754210615       -4.5255393758
 H         -0.7541651829       -0.4555689005       -5.4512823783
 O         -6.5528890809       -0.4371274494       -2.5924278851
 H         -7.2971958496       -0.6774459715       -3.1437654873
 H         -5.8373274973       -1.1248020709       -2.7726546964
 O          5.4332655494        1.6417006137       -2.6871011889
 H          5.3102778557        0.9312998749       -2.0202607309
 H          6.0364719133        2.2570070678       -2.2531472755
 O          2.9189408089       -0.1609588058       -2.4981936417
 H          3.6640891313       -0.3445347625       -3.1017077142
 H          2.2761306716        0.3518656454       -3.0247253741
 O         -0.8856687829       -5.7758220036        0.6520288088
 H         -0.5265644138       -5.5592700754        1.5292168816
 H         -0.2447292749       -5.4777166742       -0.0138267561
 O          6.9289291295        2.7531028209       -0.6003688624
 H          7.6171471717        2.0586215867       -0.5128197573
 H          7.3416049387        3.5813890766       -0.3548135067
 O          0.9974746221        2.6502038494        2.2245111236
 H          1.5739695491        3.3737048183        1.8971153782
 H          1.5923035091        1.8889024690        2.4207988222
 O          0.5456803647        3.9531900597        4.5127413476
 H          0.9581333866        4.8078635545        4.3812856186
 H          0.6227271348        3.4816887257        3.6473824082
 O          6.1677822066       -3.5280765615        0.2160102985
 H          5.2096495035       -3.5306379703        0.4490223420
 H          6.5376122399       -4.3374445286        0.5683702134
 O          4.8107917317        1.9891373364        0.9826933488
 H          5.0551131657        1.2131246646        1.5211186943
 H          5.5711098138        2.2153779708        0.4205151340
 O         -7.4225256793       -0.6375306167        0.1246547692
 H         -7.2070081761       -0.7418754900       -0.8125412258
 H         -7.5918217977        0.3048417716        0.2508977051
 O         -2.9315299076        0.0596807503       -3.1766747016
 H         -3.5866843516        0.7791221266       -3.1265771223
 H         -2.5712234516        0.0893269607       -4.0730699487
 O          1.0651983951        1.2594678044       -3.8407517830
 H          0.6448930435        0.5011952931       -4.2780453428
 H          0.3192999609        1.7982897750       -3.5078846970
 O          3.5742217801       -3.4356085621        0.7878387241
 H          3.0745529089       -3.2747479099       -0.0438902253
 H          3.0372084778       -4.0461007549        1.3380224262
