  191
       -320.31916203
 H         -0.2892355139        1.6512885101       -1.2999887764
 C          0.5765972301        0.9966731530       -1.3354117066
 H          1.2225033154        1.2958639609       -2.1601940290
 C          0.1180850766       -0.4486416739       -1.4937140281
 H          0.9929850609       -1.0983610505       -1.4988734831
 H         -0.4203655950       -0.5662771338       -2.4316473919
 N         -0.7506354531       -0.8623662739       -0.3985751429
 H         -0.2789384633       -0.6683557447        0.4813265058
 H         -1.5936863344       -0.2978010862       -0.4073434866
 O          1.2453848491        1.1807235313       -0.0950283073
 H          1.9969339697        0.5676635781       -0.0382374214
 O         -1.6145255612       -5.6375320953        0.2118717131
 H         -1.7068774631       -4.8079310506       -0.2986189940
 H         -2.2039873882       -5.5443006682        0.9676293007
 O          0.0226351893        3.9859875126        3.4458439899
 H         -0.2373562204        3.2221994727        3.9983988134
 H          0.9935043111        3.9781259726        3.3802577115
 O          2.6053853499        3.6720040137        2.6763747817
 H          2.4131866699        3.7723250036        1.7160532005
 H          3.4834086493        4.0745120791        2.8058885767
 O         -1.7942810759        5.4965744640        1.9706170020
 H         -2.6359635538        5.0230752295        2.0403237062
 H         -1.2177131787        5.1206492677        2.6525412751
 O         -5.4557739871       -0.6790185284       -4.4279812164
 H         -6.0324352916        0.0856248127       -4.2309245825
 H         -5.8143234422       -1.4088330572       -3.8913157984
 O          4.2396048986       -2.9953524892       -2.9143825003
 H          3.5468179428       -3.0101510128       -3.5990082463
 H          4.8329847502       -2.2594941137       -3.1353077734
 O         -3.8491130105       -1.9606030985       -1.1240974833
 H         -3.0430982807       -2.4707335269       -1.3264038740
 H         -3.6124585459       -1.3483047951       -0.3980804827
 O         -3.6404666673        5.0230613749       -0.6205645244
 H         -3.8358266111        4.6541629940        0.2797624771
 H         -3.3411721113        5.9208361125       -0.4798120963
 O         -0.8940456446        0.4682070119       -4.4811205859
 H         -1.0916060463        0.5234966507       -5.4175756946
 H         -1.7575089931        0.2596268714       -4.0440009227
 O          3.4846301658       -0.2198871684        0.6682769744
 H          4.0082366973       -0.8202300843        1.2457354417
 H          4.1411486037        0.3776178536        0.2422104967
 O         -0.2924553826       -0.6778417425        5.7735891718
 H         -0.4896606261        0.2410493235        5.5238335001
 H          0.5331130066       -0.8992780341        5.3203533212
 O          0.9990047179       -5.5766260137       -0.2421603465
 H          0.9803735666       -5.2154842988       -1.1438907096
 H          0.0764704956       -5.8477387285       -0.0511961739
 O         -3.8636080768        1.1991598320       -0.9105034340
 H         -4.4913890312        1.8321021469       -1.3219298811
 H         -3.0544173978        1.7424936475       -0.8184233400
 O         -0.9145475223        1.6029480827        4.3175823164
 H         -1.8456363167        1.6799881966        4.0623103375
 H         -0.5227978241        1.0584313604        3.5993634185
 O         -5.5551534367       -1.7769266048        2.2289511118
 H         -5.3181546095       -2.2331742221        3.0551868897
 H         -5.6628043955       -2.4785850459        1.5574047228
 O          8.7348461133        1.1635081955        0.6361231989
 H          9.4103386701        0.6131435302        1.0318931804
 H          8.2971504616        0.6289332219       -0.0531056931
 O          1.0155698387       -3.2965063856        1.0632399351
 H          1.5260592620       -2.7779730358        0.4158850071
 H          0.9482645979       -4.1921135713        0.6414957150
 O          5.5471285647       -4.5026499031       -1.0202134677
 H          5.0731052282       -4.1218124670       -1.7758531200
 H          4.8668107137       -4.8869080709       -0.4299005656
 O          7.1262971365       -0.3487454485       -1.0382500903
 H          6.9598923090       -1.1656181756       -0.5271308495
 H          6.4295396440        0.2938402284       -0.7724697710
 O          3.6382228704        2.9137911053       -1.9163455182
 H          3.1389611497        3.0545057792       -2.7428880852
 H          3.1072831553        3.3513879445       -1.2231970511
 O         -3.2425669749        0.2079645828       -3.3735240883
 H         -3.4743030883        0.3301354381       -2.4330869134
 H         -4.0349132652       -0.2093162992       -3.8072806310
 O         -1.5023253853       -3.2889182358       -1.1452412404
 H         -0.8161089582       -3.5410710929       -1.7814676551
 H         -1.1646715433       -2.4439581832       -0.7355719035
 O         -6.9614043780        1.3041129378       -3.3163736736
 H         -7.2693947475        0.7908759631       -2.5519644746
 H         -6.4839302644        2.0630671144       -2.9638763509
 O         -3.5605140860        2.8190705646       -4.1135866171
 H         -2.6673576900        3.1859065489       -4.0482706417
 H         -3.4690408615        1.8561234719       -3.9625019006
 O         -4.1739212384        3.9721626541        1.7402288749
 H         -5.1118910151        3.7984469444        1.5187982374
 H         -3.8025552541        3.1017538802        2.0021633883
 O          6.7124108007       -2.6651408586        0.3354577383
 H          7.5195584884       -3.0758989725        0.6452378815
 H          6.2534578445       -3.3679052508       -0.2297838837
 O          1.8459438520       -0.1610440584       -4.5056482831
 H          0.9065684538        0.0090836969       -4.3412409012
 H          2.3344957769       -0.0213069579       -3.6603257305
 O         -2.3588575691       -1.7253734741        4.4303359790
 H         -1.6751289489       -1.4083202340        5.0578680274
 H         -1.8840279285       -2.1250945832        3.6861934222
 O          6.5421159359        2.3586338274        1.7790861395
 H          6.2888057788        1.6901556786        2.4662720053
 H          7.4391499196        2.1169502909        1.4930413187
 O          5.1631066738        4.5770818750        2.6110365593
 H          5.4314265706        5.2914530093        2.0328553426
 H          5.7128791595        3.8073819863        2.3759235806
 O         -0.6714214357        2.5780607918        1.2924106635
 H         -0.3615858401        3.1766183903        2.0078520775
 H         -0.0322347475        1.8579446097        1.2099436618
 O         -0.7709465337        3.0811622527       -3.5853843427
 H         -1.0637923043        3.1409972143       -2.6575835393
 H         -0.8140596421        2.1390402336       -3.8297086057
 O         -5.9074682573        0.5611126519        0.7626608042
 H         -5.0438697448        0.6461667525        0.3084130836
 H         -5.8302416738       -0.1487076607        1.4152945680
 O         -4.5012368400       -3.2186106394        4.2978843541
 H         -3.7174950528       -2.6287887594        4.4426807064
 H         -4.8650444537       -3.4016418316        5.1634262825
 O          5.2846053762        1.4292029297       -0.3164437528
 H          5.7064218003        1.8932652753        0.4512504210
 H          4.8856100515        2.0991659867       -0.8925132870
 O          4.9414842043       -1.8517882203        2.1749354763
 H          4.3673442952       -2.5752355498        2.4594349598
 H          5.5927348199       -2.2178863879        1.5424216595
 O         -1.8927601575        3.0269515839       -1.0576506597
 H         -2.4533325519        3.8261899326       -1.0431400603
 H         -1.3823996344        3.0638179576       -0.2268854008
 O         -5.1929908261        3.2386307069       -2.0683328780
 H         -4.6760257740        3.1597464836       -2.9078125127
 H         -4.7953535826        4.0041761113       -1.6257051658
 O         -0.2425977698        5.2753814198       -0.1957801894
 H         -0.0604067330        6.1756087711       -0.4613386997
 H         -0.8204932173        5.3307870019        0.6012064938
 O          2.6837037998       -2.3228070187       -0.8254119232
 H          3.3402951313       -2.5684725359       -1.5069919583
 H          3.0031133633       -1.4859019669       -0.4372318911
 O          3.0561507522        1.0835869281        3.0552845823
 H          3.0474829539        0.7538257490        2.1388646918
 H          2.8429829833        2.0420566057        3.0045995005
 O         -3.4092590409       -4.4746711984        2.0502657077
 H         -3.8071357924       -4.2320725010        2.9007997793
 H         -4.0961195778       -4.3029374875        1.3825473285
 O         -6.5105472342        3.2230240990        0.6253988389
 H         -6.3669114246        3.3305739124       -0.3209363565
 H         -6.4220111270        2.2706514191        0.7976497822
 O         -3.2550644759       -0.8171881688        1.2468668214
 H         -2.5459431528       -1.4405133390        1.4888087796
 H         -4.0571502672       -1.1420433910        1.7076359447
 O          2.1387990928       -2.7770171846       -4.6633902930
 H          2.0162102221       -1.7895149833       -4.6445049888
 H          2.1324121099       -3.0354136891       -5.5843772606
 O         -5.3365261435       -3.6324087387        0.2679121798
 H         -4.7672040601       -3.0423703883       -0.2942277563
 H         -6.0195051979       -3.9520657849       -0.3245547178
 O         -2.9369272427        1.6661035893        2.3702684968
 H         -2.1147113664        1.9697205919        1.9299096131
 H         -3.1316823593        0.8001837413        1.9716721785
 O          5.8125044922       -0.7690284297       -3.3011613343
 H          6.4025085882       -0.6490207754       -2.5161620622
 H          6.2755294587       -0.4083487145       -4.0566213036
 O         -7.6412549356       -0.2028145551       -1.0786262754
 H         -7.0044684548        0.0852820621       -0.3795232373
 H         -8.5200476040       -0.1097385616       -0.7124366938
 O          1.9410435454        2.8675460263       -4.0316187166
 H          1.9396689320        2.0554928622       -4.5486460120
 H          1.0071106634        3.1200675120       -3.9001087347
 O         -0.0615815732       -0.1412808877        2.4356380847
 H         -0.7823586886       -0.7752601112        2.5085571725
 H          0.6840022382       -0.5350371167        2.9319436947
 O          0.9062226460       -3.8073835051       -2.3836945533
 H          1.4698220787       -3.2520525166       -1.8208643515
 H          1.2011902462       -3.6201817411       -3.2856733729
 O         -1.4325691871       -2.6505362731        2.0324016818
 H         -2.0466727197       -3.4111782849        1.9564078940
 H         -0.5879983190       -2.9095702859        1.6194007845
 O          3.6434669817       -5.3312273149        0.7083600565
 H          2.7793258644       -5.5758370681        0.3472469682
 H          3.4780980465       -4.7424601781        1.4562058971
 O          3.3806178319        0.1917183691       -2.3375420541
 H          4.2318806392       -0.1247113122       -2.6750113436
 H          3.4982623329        1.1446921429       -2.1675778352
 O          2.8607142328       -3.5676082517        2.8761285069
 H          2.5537532753       -4.1596336993        3.5632976865
 H          2.0980158926       -3.4335247415        2.2438235139
 O          1.9746693531        3.7662518002        0.0765871386
 H          1.6296437125        2.8517128708        0.0303172326
 H          1.1916096178        4.3414567164       -0.0558400091
 O          5.6668096570        0.5239986878        3.4626314030
 H          4.7375841253        0.8232236618        3.5174414714
 H          5.6117339836       -0.3704901611        3.0982479382
 O         -6.3020985536       -2.2969672223       -2.3592321498
 H         -6.8751755509       -1.6259472904       -1.9589952072
 H         -5.4116959314       -2.1147788379       -2.0216882184
 O          1.8865734181       -1.1189151062        4.0062028590
 H          2.4170480880       -1.8588044789        3.6820800103
 H          2.4077297412       -0.3046273931        3.8578461286
