  386
       -651.41116544
 H          0.4310276887       -0.7851060791        2.1038143400
 C         -0.3640170468       -0.8336809384        1.3609053651
 H         -0.3155227442       -1.7954350149        0.8553133735
 C         -0.2061148725        0.3092412517        0.3588172227
 H          0.8244065661        0.3141634409        0.0203332674
 H         -0.4327309478        1.2453113903        0.8651332491
 N         -1.0565796497        0.2169123133       -0.8222393928
 H         -0.8269235833       -0.6279044956       -1.3297416551
 H         -2.0341056562        0.1580447286       -0.5614370093
 O         -1.6242640109       -0.7737007572        2.0185674365
 H         -1.6226086705        0.0640768470        2.5199095353
 O          4.3504943677        1.2079585684       -3.5757689360
 H          3.8522660607        2.0134251341       -3.7803596474
 H          5.1722738920        1.4829884833       -3.1282634943
 O          5.5527605425        1.7987740231        0.2806569628
 H          4.7398723062        1.3658682568        0.5997842909
 H          5.2649243728        2.3896746535       -0.4408068086
 O         -1.7548043456       -5.1371373778       -2.9230285179
 H         -2.5934420072       -5.3807911190       -3.3358493011
 H         -1.5867294059       -5.7100427584       -2.1499986908
 O         -6.3711820997        6.3321397293       -0.4476951673
 H         -5.4145293780        6.4211228001       -0.5586585510
 H         -6.7174894811        6.2627286408       -1.3590878224
 O          0.0503680702        1.4828323319        6.0601645892
 H          0.6765981826        0.8446306262        6.4264999296
 H          0.6153791540        2.2172958947        5.7324533619
 O          1.9048412693        0.2642216416        3.9106614563
 H          2.2745066905       -0.4920353271        3.4268527050
 H          1.8722207519       -0.0059569031        4.8409578690
 O          0.8927812794       -3.1200890391        3.3815822997
 H          0.9359876853       -4.0913519853        3.3661651593
 H          0.5898783665       -2.8607406447        4.2600149150
 O         -2.7791422439        2.1758607164        1.3472196672
 H         -2.8588467732        1.8961995121        2.2746659738
 H         -3.0286319334        1.3840051905        0.8343880510
 O          6.3269624793       -0.7062012192       -0.5922672903
 H          6.2325166039        0.2342313006       -0.3569948829
 H          7.1772786793       -1.0107352537       -0.2256288172
 O         -0.8761878817        4.1163156957        3.1738543519
 H         -0.0277945473        4.6097172281        3.1553315639
 H         -1.2025946709        4.1625123492        4.0985588506
 O          2.4912458465        1.4055256149       -1.4052500371
 H          3.2030826283        2.0270938538       -1.6794928910
 H          2.8431101058        0.9481007392       -0.6209334847
 O          1.4234481178        3.4462556874        0.0386333462
 H          1.7293354360        2.7316801598       -0.5484029564
 H          0.4491576644        3.5065993282       -0.0777860055
 O         -0.0241156678        1.9888694205       -2.4956547097
 H         -0.5450922087        1.3910813169       -1.8899021268
 H          0.8991733889        1.7695670219       -2.3276544995
 O          3.1713941829       -1.8096805039        2.8354200110
 H          2.4291907045       -2.4398023104        2.9232050976
 H          3.7763137822       -2.1373452613        2.1433924833
 O          4.1043685470       -6.0439539134        0.4789494137
 H          3.8676791137       -5.2989038220       -0.0949804799
 H          5.0613518008       -6.1844280746        0.3042877063
 O         -5.2908502887       -0.6561750102        3.2313333830
 H         -5.2695409509       -1.4352283825        3.8201454219
 H         -5.3647274543       -1.0055955618        2.3343567400
 O          4.7896896336       -2.5273729044        0.7832514947
 H          4.4084361407       -3.0339954891        0.0389750898
 H          5.2899236524       -1.7846891027        0.3899627501
 O          6.6789613855       -5.8468732643       -0.1411793504
 H          6.6302928678       -5.3847405101       -0.9906607955
 H          6.9085181845       -5.1777709027        0.5237654237
 O          1.9512701364       -3.7504445218        0.7442685285
 H          1.0133782821       -3.8610971332        0.9523668167
 H          2.4623118530       -4.0401721329        1.5166324773
 O          6.5232619324       -0.6318662497        4.7705833745
 H          5.6669490377       -0.8202118285        5.1996660947
 H          6.2753549858       -0.4916341893        3.8178828134
 O         -5.5008951170        1.6435478539        1.8559583494
 H         -6.4422924003        1.4886818105        1.9905153875
 H         -5.3309449346        2.5566881856        2.1267205080
 O         -3.8845682905       -6.4832385136       -0.0831878956
 H         -3.9708847758       -6.0689145110        0.7933574335
 H         -2.9310510135       -6.5975323670       -0.2327868796
 O         -7.0102814164       -1.0383671228       -2.6222317246
 H         -6.0595847980       -1.2770690027       -2.6853745320
 H         -7.0682353758       -0.5187699337       -1.7935367519
 O         -0.7668548106       -0.8864068252       -3.7654997074
 H         -1.4794409206       -0.3424973682       -3.3665581478
 H         -0.9815957589       -0.8972145578       -4.7157146377
 O         -4.7944413121       -0.6463001483        6.3540127129
 H         -4.9869413456       -1.5118946527        5.9749500261
 H         -3.8377205130       -0.5266221943        6.2883858839
 O         -6.9611132978       -0.0126199114       -0.2090840190
 H         -6.4030844539       -0.7298063078        0.1420879812
 H         -7.4009264966        0.3972777896        0.5475752084
 O         -0.5371575892        1.4780059151        3.2378250765
 H         -0.7908165018        2.4217015411        3.1702025922
 H         -0.3262717480        1.3090734607        4.1648471141
 O         -4.4685786554        3.4879808003       -0.2935527591
 H         -3.9257665621        3.1266393650        0.4361021108
 H         -5.3625965548        3.6517770715        0.0760197328
 O         -1.1447237264        3.5224822100       -0.1936694059
 H         -1.6843435523        3.1240789979        0.5144590622
 H         -1.5790145604        3.2815546886       -1.0403112678
 O         -4.0508455655       -4.8578177048        2.1330376545
 H         -3.7766182742       -4.0578622210        1.6515369607
 H         -4.9870420302       -4.7395522221        2.3508377597
 O          1.8490823908        2.3771220959        2.3819576217
 H          1.0516380480        1.8696617856        2.6479518465
 H          1.6101382554        2.8676488968        1.5600620287
 O          0.2892476551       -2.4461364130       -1.5813859976
 H          0.9944684726       -1.9439891624       -1.1290226846
 H          0.5631935203       -3.3770168092       -1.5345687333
 O         -3.8342534761       -2.3895701691       -5.2349441389
 H         -2.9597042581       -2.1003387411       -5.5521098439
 H         -4.4663440861       -1.7921988851       -5.7108471394
 O          8.4716565996       -1.9545315847        0.4929388534
 H          8.8673053424       -1.5024081342        1.2682434891
 H          7.9355322909       -2.6796254149        0.8913799318
 O         -1.7585384758        3.7992753315        5.6678780266
 H         -2.6955442666        3.5713542995        5.5564775073
 H         -1.3277763483        3.0337426032        6.0606453789
 O         -6.7342420135       -4.2896527511        2.6418775013
 H         -7.3279628910       -3.5444970073        2.8244583870
 H         -6.9163403199       -4.5236580945        1.7186354244
 O          8.0833414612        1.1289214536        0.9905417429
 H          7.7938719469        1.9616215267        0.5856035594
 H          8.3477262963        1.3292933598        1.9023962272
 O          3.3506772413        5.2758995332        0.0456194358
 H          2.5158991239        4.7713149461       -0.0434736205
 H          3.6422656311        5.0685335352        0.9587536075
 O          0.9915538756       -5.8596260355        3.0994902870
 H          1.0610848800       -6.2003880346        2.1794066248
 H          0.0742982123       -5.9810551428        3.3692446579
 O         -8.1259286797       -1.8362028792        2.2997507269
 H         -8.7564286130       -1.9062606621        1.5632655713
 H         -7.2524444957       -1.7975105871        1.8826446442
 O         -4.0189274387        0.1381267604        0.0993276557
 H         -4.4466382088        0.3169348152       -0.7516471706
 H         -4.6388998111        0.5064545237        0.7548118788
 O          2.7295390873        3.4806139956       -4.0902086808
 H          2.0242419739        3.9676416175       -3.6239549953
 H          2.2963570592        2.9479599956       -4.7751186966
 O         -4.4108069733       -1.5498371180       -2.7765811006
 H         -4.2404210443       -1.8669184498       -3.6911276842
 H         -3.8271657319       -2.0932149022       -2.2191133795
 O          4.1055740145       -1.6906637996        5.3509122728
 H          4.4175497304       -2.6172971049        5.4308225728
 H          3.8146109234       -1.6379580487        4.4124098553
 O          1.9964517392       -0.5799436034        6.5225582162
 H          1.3419505407       -1.2944279409        6.4746933572
 H          2.8456617501       -1.0016724641        6.2516011942
 O          1.6977895094        1.4148383080       -5.5717176614
 H          1.7569353151        0.8626259088       -4.7595943246
 H          2.0608539215        0.8444587398       -6.2589025841
 O          3.3763855705        0.5951314211        1.1199241246
 H          2.7899485535        1.1112331984        1.7083096699
 H          2.9675382452       -0.2709364368        0.9267611096
 O          2.3532326260       -1.3696607694       -0.2856837923
 H          3.0613026497       -1.3682682442       -0.9699086213
 H          2.3525525882       -2.2527105101        0.1450972789
 O          1.7822447674       -0.3119015732       -3.4907684670
 H          0.8162160126       -0.5088094241       -3.4525997811
 H          2.0387435025        0.1566647264       -2.6804377292
 O          8.5511567264       -0.1936190487       -2.8948914501
 H          8.4130471748       -1.1395618501       -2.7270782105
 H          9.1844892573        0.0912524959       -2.1992148931
 O         -3.1954059488        0.9135786475        3.7103922291
 H         -3.9784183230        0.3738923690        3.4558985148
 H         -3.5518640371        1.6998482004        4.1870102694
 O         -4.2238741036        5.5469041963       -3.6486583637
 H         -3.3783792801        5.5660006561       -4.1184948222
 H         -4.0042482930        5.7516799925       -2.7092141233
 O         -4.8717794061        4.2902932352        2.6009679166
 H         -5.5602755773        4.9556428381        2.5973718574
 H         -4.0682451615        4.6830376741        2.1868400684
 O         -8.5550697921       -3.0194766522       -2.0485426203
 H         -9.0129682724       -3.2795634230       -2.8468785052
 H         -7.9300932878       -2.2767588826       -2.3126175039
 O          4.4059355285        1.3001479784        3.9919960842
 H          4.4127826428        1.5245785144        4.9382252887
 H          3.4834275402        1.0336851977        3.8166212947
 O          1.3372527029       -5.0089806228       -1.6347214408
 H          1.3102903208       -5.3113199743       -2.5430008063
 H          2.2330396615       -4.6662708950       -1.4673410177
 O          8.6575939371       -2.7831203981       -2.0028440093
 H          9.3789685266       -3.4042292152       -2.0976056695
 H          8.6545940530       -2.4847303709       -1.0654025200
 O         -3.5985901580        5.9784088978       -1.0929743782
 H         -2.6480179982        6.1690487080       -1.0082440485
 H         -3.7470931532        5.1244468191       -0.6454064781
 O          6.0723910359        5.5736307516       -1.1008966347
 H          5.2314253793        5.7294550993       -0.6546257692
 H          5.8656904876        5.4971539867       -2.0439847684
 O         -0.8311775796        2.1823889266       -5.0943215918
 H         -0.6800780102        2.0476808063       -4.1358649381
 H          0.0118748753        1.9223261958       -5.5019860522
 O         -1.5879077910       -1.2092253826       -6.2916462504
 H         -0.8338634591       -1.7674436940       -6.6231181202
 H         -1.8143986650       -0.5720361039       -6.9681733064
 O         -1.2162424625       -6.3433860823       -0.5608526007
 H         -0.4841653995       -6.9362092203       -0.3720903302
 H         -1.0292777488       -5.5314297487       -0.0289496533
 O          2.6702615225       -1.1197033804       -6.1348257989
 H          3.6369874650       -1.0909752388       -6.1725068641
 H          2.4608673013       -1.1007392530       -5.1913376663
 O          4.2212760568       -1.1467561451       -2.1567335131
 H          4.1595120911       -0.3519344761       -2.7063350702
 H          5.0835382857       -1.0891076295       -1.7148324917
 O         -7.2654487911        0.5488198195       -4.8249020630
 H         -7.2171981469       -0.0009706669       -4.0210451870
 H         -7.3798744434        1.4593599801       -4.5279784291
 O          0.0263553288       -3.5098178636       -4.2101684484
 H         -0.2934696571       -2.6469516318       -3.8851404074
 H         -0.5725546101       -4.1673475194       -3.8231393751
 O          5.0891561423       -3.1866160607       -4.5421643367
 H          5.2681966052       -2.2750686940       -4.8307499787
 H          4.1637087336       -3.1767372216       -4.2472046096
 O          5.2720181925       -0.5672683889       -5.4050509540
 H          6.1807233187       -0.2712431883       -5.5652569139
 H          4.9021626344        0.0819986017       -4.7743930457
 O          5.0906493693       -4.1207997848        4.9181861531
 H          4.5734469923       -4.3754245860        4.1308693964
 H          5.9718074667       -3.8810564823        4.5999547566
 O          3.5330569572       -4.8050433818        2.7665900134
 H          3.8932756571       -5.3382118199        2.0235705642
 H          2.8170128596       -5.3256081823        3.1505553196
 O         -7.7933878789        3.2343420432       -3.8417080679
 H         -7.8910595154        2.8968542216       -2.9057884230
 H         -8.6790149971        3.3670353315       -4.1791088356
 O          1.7027850520        3.2911635417        4.9880852139
 H          1.5296716396        4.2272573673        4.8471780742
 H          1.8593554307        2.9155014408        4.0992420427
 O         -5.3658441764        1.4965603047       -1.9212000536
 H         -5.0876673007        2.1853723836       -1.2899041513
 H         -5.2166479737        1.8793631631       -2.8024101855
 O         -6.9792688368        3.9477859111        0.4835309011
 H         -7.2580593494        3.8911700316        1.4103298365
 H         -6.9020037271        4.8981809282        0.2285820899
 O         -0.8341712999       -4.2457766986        1.0320676345
 H         -0.9675764541       -4.6154026994        1.9282374075
 H         -1.5992582914       -3.6634998173        0.8908034673
 O         -0.0791759388       -2.2991382104        5.9320486588
 H         -0.7559643869       -1.6047001447        5.8142165481
 H         -0.4744053746       -2.9943314263        6.4578967394
 O          1.1093820204        6.9155681255        0.9344318279
 H          0.3853148567        6.7073395062        0.3131884258
 H          1.9299843235        6.6831073813        0.4822470724
 O         -4.9835511099       -2.9483289501        4.5853509816
 H         -5.5270655151       -3.5943003583        4.1201537372
 H         -4.0689368203       -3.0411899527        4.2579993459
 O          6.0719178684        2.8898224712        2.7031196882
 H          6.0137627694        2.5823296630        1.7753824879
 H          5.4796566949        2.2842888232        3.2063327546
 O         -9.7505017759       -1.8600717412        0.0544930396
 H         -9.3137393420       -2.2838960942       -0.7163419281
 H        -10.6197187608       -2.2509791937        0.1379460759
 O         -7.9216989566        2.2870063765       -1.4182019913
 H         -7.7030711568        2.9506588848       -0.7324339795
 H         -7.1215715517        1.7196276248       -1.4665066569
 O          3.6180071882        1.9232560701        6.5027804334
 H          2.9706936494        2.5305699083        6.1113236336
 H          3.1327355604        1.1422777313        6.7852632437
 O          7.6028349376       -2.9196561535        4.2908015454
 H          7.1750519324       -2.0401293658        4.5421942833
 H          8.1158427575       -3.2052429016        5.0460021036
 O         -2.6514563261        5.2759018075        1.5695942907
 H         -1.9714002098        4.8181648892        2.1136563150
 H         -2.3803655128        6.1906651212        1.4949081888
 O          3.8325769091        4.3388352529        2.5105276600
 H          4.7545616598        4.0513183086        2.6674347012
 H          3.3095933602        3.5228252301        2.5146026957
 O          6.3168141870       -4.1695015650       -2.3967403330
 H          5.9521171764       -3.8909414435       -3.2694144731
 H          7.0873337699       -3.5960948955       -2.2518920521
 O          9.3041719719       -1.0720545291        2.8632243341
 H          9.0339808588       -0.2049661261        3.1934241289
 H          8.7831523765       -1.7257848127        3.3527695699
 O         -2.2990969453       -2.8039144357       -1.6983775374
 H         -1.3543221120       -2.5435052874       -1.6608663475
 H         -2.2779161332       -3.6812202485       -2.1252388845
 O          1.4000653722        5.5195139420        3.2074685987
 H          1.2202120274        6.1413337419        2.4715671243
 H          2.3140815952        5.2338479053        3.0592900741
 O         -6.2554447414        1.2740705706        4.9761862080
 H         -6.1249379029        0.7599241674        4.1613622835
 H         -5.9313189401        0.6775477270        5.6718253263
 O         -5.2386127639       -0.4785157923       -6.3451230658
 H         -4.5738636886        0.2180831733       -6.2380241028
 H         -6.0302232775       -0.1491264939       -5.8799373424
 O         10.0048548690        0.3602659695       -0.7233233552
 H          9.3136026538        0.6460744889       -0.0860669935
 H         10.3900895044       -0.4275260409       -0.3371462323
 O         -2.0014988208       -0.3409902931        5.6518285121
 H         -1.3951673864        0.3248913794        6.0058526293
 H         -2.4162738654        0.1176325946        4.8656129883
 O         -4.2665579894        3.0123152650        4.8879889648
 H         -4.4803248054        3.5685362875        4.1130116567
 H         -5.0767886046        2.4822409920        5.0694507536
 O         -2.3710851491       -2.5410251951        3.9200160193
 H         -2.3066955090       -1.9151035396        4.6498733758
 H         -2.0639707187       -2.0328344113        3.1406551250
 O          0.4947958844       -2.6953136098       -6.7974094673
 H          0.4062730195       -3.1795201168       -5.9580707069
 H          1.3172203976       -2.1827760259       -6.7192013711
 O         -6.9405069193        5.8305745309       -3.0663431463
 H         -6.0452441876        5.9169360378       -3.4215102701
 H         -7.2502407349        4.9529412230       -3.3346446763
 O          0.5335384544        4.6322061638       -2.8169433801
 H         -0.1437174491        4.8630656020       -3.4798226737
 H          0.2763773259        3.7338778446       -2.5310560742
 O         -6.9116617044       -4.1797638921       -0.1591844716
 H         -6.1008633155       -4.3506399303       -0.7003538848
 H         -7.5842746428       -3.8964301441       -0.7944021455
 O         -3.3746724068        1.4475204136       -5.6032858171
 H         -2.4588916574        1.7835020186       -5.5952843913
 H         -3.9458538261        2.1446891548       -5.2311998284
 O          3.8987153052       -3.9171955687       -1.3524789735
 H          4.8064192465       -4.0868459789       -1.6901554930
 H          3.4918650421       -3.3784741975       -2.0626050920
 O         -0.8208239959        6.0596482663       -0.8098715316
 H         -0.2807945336        5.8288260759       -1.5844206286
 H         -0.9922359151        5.1889570771       -0.3862866839
 O         -2.6555556591        3.0845846723       -2.3102503373
 H         -3.4498209693        3.3130621523       -1.8091437313
 H         -2.7339748093        2.1387321087       -2.5631318245
 O         -4.1996607284       -4.8659330480       -4.2246572888
 H         -4.0337265894       -3.9783605333       -4.6105505326
 H         -4.6686587233       -5.3636817364       -4.8932232405
 O          1.4109990381       -6.6858725539        0.5614625895
 H          1.3023432769       -5.9659384790       -0.0874259095
 H          2.3694756792       -6.8136832933        0.6046504016
 O          5.9831025700       -0.4152317993        2.2246713838
 H          6.6085063100        0.1554466173        1.7540055153
 H          5.1012012869       -0.0331556900        2.1413158848
 O         -1.7112964359        4.6270626244       -4.3139258804
 H         -2.0808858917        4.1170452138       -3.5615162511
 H         -1.4101248575        3.9363649930       -4.9242429711
 O         -3.1119609913       -2.6558702572        0.7493288037
 H         -2.9225095806       -2.7180530672       -0.2234382516
 H         -2.7526713463       -1.8049090341        1.0542880152
 O         -1.6748177985       -5.1187098316        3.4479737982
 H         -1.7669975496       -4.2093183065        3.7843330892
 H         -2.5550013196       -5.3291417445        3.0980296275
 O          7.6572080708        3.4732311458       -0.5423510483
 H          7.0432388262        4.2360006557       -0.6480306446
 H          8.5278524444        3.8040483120       -0.7640974789
 O          6.9385442766       -3.7634459603        1.6792643126
 H          7.1361780033       -3.5719886254        2.6046126210
 H          6.0712129856       -3.3339928840        1.4777422277
 O          4.3266225302        3.2924879070       -1.5296373478
 H          4.7055705976        3.7240159917       -2.3222927289
 H          3.9774401913        4.0241506020       -0.9835366536
 O          6.9711575989        3.0196491427       -4.7577329280
 H          6.9644199662        2.5664473691       -3.8899689149
 H          7.2014482624        2.3297005465       -5.3870327248
 O          8.1400175489        1.4417723586        3.7353329305
 H          7.6581411988        0.8774879215        4.3577895277
 H          7.5014974604        2.1434363824        3.4980060165
 O         -7.6162209681        3.3620344621        3.1599543763
 H         -8.0728767733        2.5550563818        2.8724204199
 H         -7.1885398748        3.1095275164        3.9833038088
 O         -5.7112523300       -2.0794300288        0.8995180703
 H         -6.1620154047       -2.8589613877        0.4984241115
 H         -4.7556020217       -2.2213791039        0.7349516981
 O         -9.8679822467        0.9627351485        0.0439150040
 H         -9.2604370820        1.3914673241       -0.5871513182
 H         -9.8239970030        0.0101826246       -0.1258943677
 O         -5.0149896152        3.0510873817       -4.1510856477
 H         -4.6901080152        3.9580328415       -3.9449316121
 H         -5.9543358128        3.1464535902       -4.3431116174
 O          6.7245041105        1.7187061204       -2.4157458855
 H          7.0564087535        2.2832512902       -1.6943085298
 H          7.3266183060        0.9541518747       -2.4962884082
 O          5.1568552018        4.6949834938       -3.6521814024
 H          4.2995165610        4.4965758659       -4.0595996494
 H          5.8280253332        4.2287074492       -4.1820249296
 O          7.8742001054        0.3777266087       -5.4755308323
 H          8.1467651394        0.2137642609       -4.5507333272
 H          8.5514904195       -0.0066745343       -6.0310083749
 O         -8.2451308248        0.9093443259        2.1146799121
 H         -8.3145282555        0.0114076922        2.4830987942
 H         -8.9959028361        1.0165680052        1.4815936870
 O         -4.6649693755       -4.3904387546       -1.4981645696
 H         -4.6404791295       -4.5707792383       -2.4465800892
 H         -4.3422043883       -5.2038635613       -1.0439690039
 O          2.5521681153       -2.9444174980       -3.4718758223
 H          2.4481955708       -1.9876194012       -3.3278594940
 H          1.6725555119       -3.2612431968       -3.7507383565
 O         -2.8847949703        0.5690724762       -3.1269995162
 H         -3.1040049705        0.7781798349       -4.0602388956
 H         -3.5418081797       -0.1069631798       -2.8533746506
