  84
       -142.49026594
 O          5.4701957672        0.9723524525        0.2948095981
 H          6.3335429306        1.3105763729        0.5346209399
 H          4.9220613820        0.9711403129        1.1147968389
 O          1.2352604360       -1.8697363905       -2.8650738544
 H          2.1243135690       -1.4901906657       -3.0013065989
 H          1.3149809468       -2.4948051319       -2.1267953693
 O         -1.2981040408       -3.8095358375        0.5796374583
 H         -1.9707473803       -3.6776689747       -0.1434962575
 H         -1.5326174531       -4.6373495989        1.0040692788
 O          5.1146768749       -1.4276290065       -1.0676318782
 H          5.4066930001       -0.6378589284       -0.5838085555
 H          4.4996545632       -1.8842385931       -0.4669537087
 O         -5.7041141841       -0.0794526067        0.8251038730
 H         -5.4683537348       -0.6427336060        0.0722863372
 H         -5.1372396536       -0.3566601546        1.5612397179
 O          2.1023669753        2.9207928072        1.7241805008
 H          1.1849861330        2.7704752849        1.9965801137
 H          2.0443680968        3.2629464385        0.8191648655
 O         -0.5867400855        2.3259550336        1.8456445391
 H         -1.5152374094        2.3763047150        2.1148908990
 H         -0.6070514849        2.3940678160        0.8695055328
 O         -5.3710571718        2.5039800418        0.2851131029
 H         -6.2274619255        2.9164673043        0.1679282206
 H         -5.5494733683        1.5406652114        0.4236691811
 O          3.0425899498       -2.1861096425        0.4959603068
 H          2.3774103437       -2.8403202401        0.2319599941
 H          3.0361019089       -2.1124075698        1.4828018771
 O          1.8393428793        3.7512296661       -0.9699362374
 H          2.2450947199        4.5780775645       -1.2340425344
 H          2.4357026098        3.0361263757       -1.2610872092
 O          1.0754167651       -3.7048054059       -0.6937458962
 H          0.2304133347       -3.7675338254       -0.1937161210
 H          1.3079548938       -4.5986550358       -0.9503852561
 O          0.4477172788       -0.1061735420        2.4966920658
 H          0.0336061935        0.7698070138        2.5800949287
 H          1.0321795689       -0.0084580824        1.7255210270
 O         -1.5774278873       -1.9686001489        2.7410038272
 H         -0.8153030114       -1.3627494714        2.7426054431
 H         -1.4219637486       -2.6094659794        2.0325171002
 O         -3.2775712385        1.9125822963        1.9552133236
 H         -3.5161067279        1.0788619949        2.4026836027
 H         -4.1029981593        2.3518912105        1.7123763723
 O         -3.8524700056       -0.5901451677        2.8901918335
 H         -4.2129367665       -0.7423024526        3.7650399093
 H         -3.0242722106       -1.1274322831        2.8416399487
 O         -2.9556022888       -3.4506235486       -1.4210577899
 H         -2.4404959395       -3.2992527021       -2.2301358870
 H         -3.6189716257       -2.7427443219       -1.3907333786
 O          3.6318723754       -0.5754394914       -3.0108557439
 H          4.1256476206       -0.6137778054       -3.8307260997
 H          4.2283001559       -0.9752751169       -2.3073515928
 O         -1.3448774395       -2.7051587402       -3.5962709897
 H         -1.4054220399       -3.1801804769       -4.4260403953
 H         -0.4116932100       -2.4696476120       -3.4745966947
 O         -4.5372924373       -1.1090352065       -1.4923526699
 H         -5.0021330717       -0.8739396550       -2.2961469995
 H         -3.9501773826       -0.3548696715       -1.2666806846
 O         -3.1402525882        3.7394207825       -0.9092900933
 H         -3.2543779593        4.6242638368       -0.5590969936
 H         -3.9012081572        3.2214559564       -0.5970960543
 O         -0.6863207514        2.5906759051       -0.8790182574
 H         -1.5541714622        3.0302827728       -0.9843507124
 H          0.0219695921        3.2278998021       -1.0450966943
 O          3.8926590370        1.1296009567        2.4531504047
 H          4.2639898808        1.5283344453        3.2418901489
 H          3.1757093007        1.7486008257        2.1543142962
 O          1.9392019942        0.1706621319        0.2113243010
 H          2.5232216936        0.8043563865       -0.2526739222
 H          2.4229464374       -0.6926226518        0.2517964564
 O          2.8802959253       -1.4261943663        3.0066831714
 H          3.3425808890       -0.5789392659        2.8937911100
 H          1.9618116557       -1.1867740928        3.1892493871
 O          3.4795140497        1.6361787892       -1.4325731128
 H          4.3103096954        1.5516748821       -0.9311511829
 H          3.5128947060        0.9556137704       -2.1323851050
 O         -2.7100589227        0.4237084601       -0.3609657539
 H         -2.8457262889        0.9256068817        0.4560392699
 H         -1.8489001954        0.6696785975       -0.7032023853
 O          0.0405098016        1.2096427297       -3.1014588681
 H         -0.2023410363        1.6542859535       -2.2705341604
 H          0.5156204384        0.4142401228       -2.8424998373
 O         -2.4687266090        0.1426276381       -3.7135212715
 H         -2.1682931077       -0.7652674970       -3.5966763024
 H         -1.6676155666        0.6808160902       -3.5948948847
