  189
       -320.74851661
 O          5.1481932924       -1.9256993476       -0.0684005761
 H          5.1672784294       -1.4540314950        0.7939929066
 H          5.8960798084       -1.5893073142       -0.5852677163
 O         -3.4766775968        4.5061695893       -0.1220723819
 H         -3.4118580093        4.6014622932        0.8295147952
 H         -4.2433472970        3.9326744572       -0.2902999853
 O          1.3295902079        1.1588686072       -2.4089860267
 H          1.2384399309        2.0603480514       -2.7879204319
 H          0.5015361886        0.9709273143       -1.9392255717
 O         -1.7632228988        0.0112766818       -4.2679204836
 H         -0.8710960991       -0.0764853260       -4.6506766326
 H         -1.5852014908        0.1434912240       -3.3066967097
 O         -0.8412535586        0.6870806900        3.0023374471
 H         -0.1373906900        1.2169329206        3.4388076728
 H         -0.3953065487        0.2484058808        2.2646080536
 O         -2.4240013047       -2.6251977493       -4.3767383863
 H         -2.2517932037       -1.6573393964       -4.3619314304
 H         -2.9689236088       -2.7985676822       -5.1440493506
 O         -3.1262112304        1.2509729688       -0.1512436879
 H         -3.9012792249        1.7448231285       -0.4887129403
 H         -2.8232162978        1.7814434632        0.6236890272
 O         -1.3291252467        3.4374970670       -1.3230714109
 H         -1.5358627973        3.1860959007       -2.2366277493
 H         -2.1382114117        3.8462043104       -0.9508684044
 O         -4.1755605094       -0.7818711079        1.1233260534
 H         -3.7763603440       -0.7753548974        2.0282274789
 H         -3.7959190494        0.0093016997        0.6621752188
 O         -0.6869619842       -5.5350795954        1.1618073047
 H         -1.6078160735       -5.2365818859        1.1565835796
 H         -0.3923112854       -5.4815436363        0.2474909004
 O          0.3468234803       -2.9191899530       -3.9547748485
 H         -0.5771891503       -3.0328258361       -4.2131387355
 H          0.5642110394       -1.9895556694       -4.1710594541
 O          0.0556005654       -4.3362644980       -1.5791598439
 H          0.8999675350       -4.4570881500       -1.1168319343
 H          0.2790948536       -3.8819784119       -2.4085409662
 O          0.8949254727       -0.3138883309       -4.5783482887
 H          1.7039184343       -0.2811187031       -5.0982323861
 H          1.1237039179        0.1797794202       -3.7514300978
 O         -3.0932612328       -4.1984061746        0.9424320717
 H         -4.0252149121       -4.0273021553        1.2077759322
 H         -3.0716011351       -4.1711689112       -0.0225403093
 O          0.7003655160       -1.9963780091        3.0449134501
 H         -0.2091474406       -2.2750832059        3.2232881674
 H          0.6691661743       -1.5131006144        2.1774815950
 O         -1.8128245687       -3.2280476475        3.1234480806
 H         -1.8012757925       -4.0068418639        3.6810345018
 H         -2.2158387509       -3.5084174202        2.2764927417
 O          1.2406948124        2.0875206530        3.9085037369
 H          1.8147908670        2.5291863569        3.2527051917
 H          1.7345552243        1.3114414900        4.2122689306
 O         -0.4094691656        3.8612460841        2.2732415440
 H         -0.0707572210        3.2157560393        1.6061797484
 H         -0.0283095402        3.5806215665        3.1115086022
 O          2.3550552226       -4.4960984825       -0.0924290954
 H          2.0449450830       -4.5031702143        0.8439052696
 H          3.2984432095       -4.7170206585       -0.0511278312
 O          3.1157458594       -2.4472708536       -3.4086491533
 H          2.8714346195       -2.2103805540       -2.4865847171
 H          2.3571320472       -2.9172302065       -3.7652519040
 O          2.5009909738       -1.9431848779       -0.8432409576
 H          3.4080008956       -1.7021077489       -0.5925285839
 H          2.3971972259       -2.8775151484       -0.5648073398
 O         -3.0023648357       -0.8313634016        3.4903229903
 H         -2.2131734115       -0.2586346219        3.4824684997
 H         -2.6626714284       -1.7418388196        3.5325561893
 O         -8.2327221275       -0.6361586972       -0.6945432408
 H         -9.1594652565       -0.5702166524       -0.4646829563
 H         -7.7224456822       -0.3568029409        0.1018791953
 O          5.0440210611       -4.5232475122        0.4126746096
 H          5.1046796110       -3.5558168735        0.2129335900
 H          5.7722068928       -4.9482328537       -0.0388923387
 O          4.8738121988        3.4724590860       -2.3226086134
 H          5.0442305359        4.3930361947       -2.5227494625
 H          4.3707425671        3.1209996873       -3.1146546160
 O          1.4172810216        5.6445374818        1.3081680203
 H          0.5857463798        5.3156919912        1.6871560344
 H          1.2571312292        5.7284129633        0.3549215316
 O         -6.7799395143       -3.0184465823       -0.7553284160
 H         -7.4265791807       -2.2976842820       -0.7947280918
 H         -5.9870147809       -2.6727605712       -1.1990172082
 O         -5.4279475734        2.1549817911        2.4798550821
 H         -4.4822147081        2.3565678092        2.4026454623
 H         -5.4833680457        1.6195177451        3.3049420193
 O         -5.3603659497        0.3447951170        4.4476531899
 H         -4.4933957173       -0.0598943541        4.3025125238
 H         -6.0043466178       -0.3736575470        4.3119244615
 O          4.9304234355        1.3222230681        4.2494181832
 H          4.0514449651        1.0578318559        4.5423966433
 H          5.1962432674        0.6471473401        3.6051726360
 O         -6.7170799373        0.0440060337        1.3589469882
 H         -6.5432164119        0.9013571189        1.7836449803
 H         -5.8176089715       -0.3162485061        1.2004521750
 O          5.0691857451       -0.6296062503        2.2716097667
 H          4.2015529454       -0.1980760859        2.0436651865
 H          4.8677788051       -1.2975728336        2.9577004581
 O         -4.0633020725        2.8599523647       -2.8257769581
 H         -4.2747824204        1.9111133696       -2.8638215242
 H         -4.8766215475        3.3137781390       -2.6052292887
 O         -6.8598579149        1.2737822642       -2.1261083977
 H         -7.4224913030        0.5791683337       -1.7442140277
 H         -6.1818381198        0.8159063067       -2.6397899568
 O          2.6191838106        3.1916239919       -0.6934504800
 H          2.8804274698        3.3085926858        0.2415185591
 H          3.4203950389        3.2514555671       -1.2387647319
 O          2.7085894911        3.3872138976        1.9774705456
 H          2.3018205886        4.2752570893        1.8582774881
 H          3.6306288250        3.5469744740        2.3116024249
 O          7.4236284633       -0.7569330405       -1.1168088531
 H          7.4561647076       -0.2297769615       -0.2660748741
 H          8.3079188553       -1.0853505654       -1.2734851061
 O          1.4861008830       -4.4713886105        2.4092101676
 H          0.6552518217       -4.9234996054        2.1761787419
 H          1.2517188762       -3.5561161080        2.6863018203
 O          4.1389042732       -4.6331615608        3.0658341687
 H          3.1791237723       -4.7228335878        2.9431971194
 H          4.5211350302       -4.6517593685        2.1742645508
 O          0.2659671632        2.1311464585        0.3293946748
 H         -0.3997806063        2.5042435222       -0.2847071217
 H          1.1262532197        2.3604496432       -0.0516278407
 O         -2.6562743700        2.4664141841        2.1364967249
 H         -2.0215580922        3.2099812350        2.1556478143
 H         -2.1457694730        1.7443200778        2.5573297207
 O         -6.9605771268       -1.6998657054        3.5004744175
 H         -6.5278686866       -2.4763218457        3.1201639039
 H         -7.1427465630       -1.1141070422        2.7478044409
 O          3.4834369287        2.6611431691       -4.3590799156
 H          2.5729264678        2.9776638192       -4.2570157659
 H          3.4441034904        1.6941034737       -4.4574321803
 O         -5.4306104056        2.6015177013       -0.3144524090
 H         -6.0744154704        2.1544738738       -0.9078941840
 H         -5.7199267881        2.4874340600        0.6011239969
 O          5.8270189425        0.6138769121       -2.8566997675
 H          5.9670427001        1.5574036573       -2.7332100830
 H          6.4800854908        0.1382439431       -2.3139304394
 O          5.4083905501        2.2658345367        0.1158763464
 H          5.5286078986        2.8777635530       -0.6191927145
 H          4.7464890993        1.6197120516       -0.2165001588
 O          3.7019815047       -0.0933857253       -4.5408514602
 H          3.4899316604       -0.9740162177       -4.1555861166
 H          4.6041878073        0.0730329915       -4.2433840078
 O          7.2616751271        0.5911900561        1.0968471876
 H          6.7105028390        1.3294392349        0.7695250425
 H          6.6672628135        0.0933948818        1.6788035990
 O          3.6967053378        0.6033542882       -1.1497565712
 H          2.8645359613        0.8213897048       -1.6092174833
 H          4.3395226422        0.3998184168       -1.8514544331
 O          4.5083876994       -2.3327375283        4.2584531545
 H          4.3341422497       -3.2148743591        3.8303022673
 H          5.1310607668       -2.4962085280        4.9665196140
 O          0.9437119148        3.5042077151       -3.6465339483
 H          0.9383493220        4.2453601685       -3.0075294056
 H          0.0317568067        3.4060361795       -3.9599321008
 O          2.8826383448        0.5641858717        1.4629172083
 H          2.7918619307        1.5066279803        1.6519754328
 H          3.0285284912        0.4825653944        0.5081658932
 O         -4.3446252093       -1.8938865612       -1.3806516642
 H         -4.2149460799       -1.5872590261       -0.4679443180
 H         -3.7409648609       -2.6447384293       -1.5183192371
 O          0.8545406755        5.0605396406       -1.4122721080
 H          1.5293449761        4.4030745952       -1.1376034567
 H         -0.0088091410        4.6257142893       -1.2769397239
 O         -1.7041371187        2.8340100896       -4.0516234328
 H         -1.7423665552        1.9042191594       -4.3202588593
 H         -2.6187760340        3.0687947435       -3.8196430670
 O          5.2109630390        3.4957996286        2.6531464337
 H          5.5062797047        3.0734084984        1.8338655183
 H          5.2316691511        2.8058836610        3.3453453943
 O         -4.4635943646        0.1529608270       -3.1410893179
 H         -4.4092461493       -0.5865016795       -2.5020727953
 H         -3.7303433806        0.0432729342       -3.7537033987
 O         -5.4985063132       -3.2356481107        1.5808479284
 H         -5.0927875350       -2.3601755718        1.5139998567
 H         -6.0848722711       -3.3063694478        0.7936236468
 O         -2.6008524211       -3.9350983690       -1.8509764850
 H         -1.6628833299       -4.1362883401       -1.6693293108
 H         -2.6306345319       -3.7514881352       -2.7999954427
 O          2.4947006129       -0.3563654193        4.4083133591
 H          1.7915935214       -0.8604572263        3.9650770371
 H          3.1976079812       -1.0098286780        4.5273198479
 O          0.4352094610       -0.6866429370        0.5903571405
 H          1.1687179425       -1.0932886982        0.0887352728
 H          0.5383893248        0.2765308589        0.4960309629
 O         -1.1446320629        0.2669042870       -1.6435948612
 H         -0.8685886563       -0.4627204038       -1.0754062176
 H         -1.8742290190        0.7150678034       -1.1628838740
 O          5.2890605787       -4.0046133501       -2.3141762150
 H          4.5020936717       -3.6189116877       -2.7258749329
 H          5.9860222237       -3.3573796232       -2.4236980291
