  534
       -906.56690829
 O          2.3048871138       -3.8175920794       -1.4034189713
 H          1.3823655449       -3.8186855636       -1.7500119901
 H          2.5958730201       -2.8765760508       -1.3848450457
 O          5.0043114703       -3.5863468067        0.0165912866
 H          4.4221058968       -3.7793409146        0.7633629225
 H          5.2572782335       -4.4344351742       -0.3847209798
 O         -0.2275864302       -4.1754580456       -2.1610679152
 H         -0.7941095635       -3.3962113354       -1.9550745579
 H         -0.0236075255       -4.1199923951       -3.1152712251
 O         -3.0479902557        0.4758945489       -5.9424579633
 H         -3.5274098506        1.3182005159       -5.8484384706
 H         -3.7291734882       -0.2015792050       -6.0329269974
 O         -3.4666788762        1.4147031394        0.0720896763
 H         -3.4180346714        1.1802593061       -0.8713280777
 H         -4.1549159332        2.0951751317        0.1874165148
 O          2.6209536095       -1.6156420173        1.3897766873
 H          1.7587809420       -1.9439899842        1.0623108743
 H          3.0507647549       -2.3827724347        1.8132401820
 O         -1.7319911740       -2.1035734389       -1.4414342744
 H         -2.2357669207       -1.9381793391       -2.2595208120
 H         -2.3911896956       -2.1923513790       -0.7295343889
 O         -1.1673180182       -6.6223808643       -1.8896273024
 H         -0.5547181187       -6.9707309256       -1.2236349690
 H         -0.9387326162       -5.6624698121       -1.9466690295
 O          1.2037686832        0.0866714196       -6.3763236852
 H          1.9734716839        0.6797173362       -6.3868938639
 H          1.4584241635       -0.6040914398       -5.7395028655
 O         -3.6931800558       -4.3114579911       -1.6221011540
 H         -4.3145778795       -3.5876497238       -1.7529399222
 H         -4.2456411365       -5.1147790061       -1.5514911868
 O          5.8974143614       -0.9310500256       -0.6592456315
 H          5.8071215322       -1.2729859807        0.2323280833
 H          6.4084433671       -0.0899295665       -0.5923385181
 O         -3.1917045754       -1.7465198759       -3.6165451607
 H         -4.0961001073       -2.0629363312       -3.4297704360
 H         -2.9405601803       -2.1663935617       -4.4516005514
 O         -6.8054339832        1.0633916440       -0.2719059557
 H         -6.3348010623        1.7721363326        0.1948780635
 H         -7.2851264776        1.4612368488       -1.0162895318
 O         -0.7594484385        2.0030102929       -6.3154799773
 H         -0.0593217039        1.3224691464       -6.3224373392
 H         -1.5637379727        1.5295206768       -6.5530600357
 O          3.0107829195        0.6446400019       -3.1861730811
 H          3.5295176692        1.2994328862       -2.6762463407
 H          3.0178035171       -0.1582525798       -2.6418015331
 O          3.9931703869        4.3357424519       -0.3361784976
 H          3.2667553089        3.9490950643        0.1963085196
 H          4.7968802011        3.8515321733       -0.0362086438
 O         -2.5058044841        2.5457569837        2.8235477593
 H         -2.5913618304        3.2243730617        2.1012367550
 H         -3.0183001891        1.7787299593        2.5592553020
 O         -3.6286832940       -2.3314995304        0.4807926836
 H         -4.2764572954       -1.8403692036       -0.0622335861
 H         -3.9998975147       -3.2116705813        0.6656928957
 O          0.6181451048        2.3474770767        5.5972803231
 H         -0.1579570377        2.9204927450        5.4188926504
 H          0.3797562704        1.4913642240        5.1735599882
 O         -1.4890398846       -4.4272203537        0.4253847439
 H         -0.7967606885       -3.7659276115        0.2318129195
 H         -2.1418082482       -4.3762651942       -0.2853541936
 O          0.3092425534       -2.3723946290        0.2651189338
 H          0.1776944388       -2.0551021905       -0.6402948446
 H         -0.1919335530       -1.7767738431        0.8548870269
 O         -5.0766018083       -0.7560808552       -1.1612701988
 H         -4.5476273990       -0.1949419107       -1.7490344457
 H         -5.7505334856       -0.1661580044       -0.7724016073
 O         11.5055078951       -2.0273247213       -1.1884363354
 H         11.0276252493       -2.6184484367       -1.7856649415
 H         11.6746558923       -1.2254717388       -1.6931612801
 O         -8.1782181628        0.1576593707       -5.0863560527
 H         -9.0193072784        0.2079854087       -4.6104421538
 H         -8.0841802752       -0.7479565206       -5.3976978599
 O          4.7487345755        5.0859164032        4.0373805926
 H          4.0293005236        5.7091825343        4.1616169217
 H          4.6898235773        4.4424239737        4.7636229027
 O          8.0090272663       -0.7259680217       -5.9928267067
 H          8.3787454976        0.0347926183       -5.5127324708
 H          7.1280723894       -0.4804544260       -6.3053984484
 O          5.2801223058       -0.1861529451       -6.3536302508
 H          4.5331746612        0.4355878899       -6.3905033552
 H          5.1457593071       -0.6743024136       -5.5091230579
 O          0.7244783518       -1.6706100002       -2.6558415500
 H         -0.0771015742       -1.2586894127       -2.9999924603
 H          1.3307712265       -1.7169893108       -3.4018870502
 O          0.2998347871        3.8570067508       -2.1072220231
 H         -0.3826018609        4.4544615591       -2.4440610882
 H         -0.1117100193        3.3556276980       -1.3421390605
 O         -1.0138629589       -0.2479649796       -4.2805907310
 H         -1.7771539783        0.0537354017       -4.8084725593
 H         -0.3998970207        0.5097018748       -4.2252597418
 O          2.8991176557        3.4047799327       -2.6967128618
 H          2.0016970360        3.7390478355       -2.5371559683
 H          3.3997194164        3.5597730675       -1.8810308184
 O          4.6039239830        2.2090796769        3.1088382700
 H          3.8542906413        2.7475508446        3.4137905210
 H          4.2568555501        1.5870011449        2.4411191647
 O         -2.4539917504        0.8984726991        6.1511813847
 H         -2.4722938883        0.1549563779        6.7640312996
 H         -2.6677707561        1.7115834494        6.6309971350
 O          2.2583121336        0.3381286092        3.2399258449
 H          1.4463780968        0.8506704975        3.0900495167
 H          2.3701398135       -0.2574305219        2.4710715616
 O          4.5166714756       -3.9505558353       -3.0753620766
 H          5.2884455611       -3.7982136708       -2.4917399421
 H          3.7246171527       -3.9416070348       -2.5150547519
 O          6.5394749263        0.3412526017       -2.9942047719
 H          6.5932256587        1.0227282397       -3.6900596290
 H          7.4363853172       -0.0087867617       -2.8384256517
 O          1.5076092024       -4.7672371964        0.9848370240
 H          0.9232228207       -5.4763825204        0.6755575180
 H          1.7512302286       -4.2474838295        0.1920362025
 O         -2.1329217021        2.7856163634       -3.9673371432
 H         -1.4565585281        2.5662980354       -4.6291889695
 H         -2.9285692661        2.9822409763       -4.4817978772
 O          0.6729030912        1.8196616796       -3.8113779728
 H          0.4634480773        2.5175581669       -3.1522481265
 H          1.5112066706        1.3975321144       -3.5337103386
 O          4.0980877015        0.7467502019        0.9269791874
 H          4.5013686010       -0.0367307096        1.3288050194
 H          3.1637831771        0.5494302699        0.7600072260
 O         -6.4220565021       -2.9964264613       -0.2502494440
 H         -6.9826970624       -2.4845966340       -0.8481997288
 H         -6.2346818526       -2.4024864673        0.4948089962
 O         -6.9600463428       -5.4395810299        0.4873927235
 H         -6.8981675201       -4.4969037303        0.1971822770
 H         -7.2718462136       -5.4187748661        1.4226662977
 O         -6.6072354747        1.2370205799        2.5978873680
 H         -6.9238680803        2.0638331871        2.2026465069
 H         -5.8846216805        1.4501178383        3.1910126201
 O          1.3367312001       -7.1849169687        2.9503100502
 H          1.6046907148       -6.6678322795        3.7175506394
 H          2.1229127332       -7.1692305871        2.3796251857
 O          7.3174683429        1.2326737803       -0.2852778626
 H          7.7264768240        1.6358170783       -1.0790092595
 H          6.8666745623        1.9514142773        0.2026244607
 O          2.6725675861       -5.2259366278        4.6022230076
 H          3.3747192716       -4.9231117573        5.1855626766
 H          1.8340346032       -4.9803219672        5.0342973657
 O         -0.6467082774       -0.5971532478        2.0133465479
 H         -1.6178572358       -0.4547241389        1.9994496556
 H         -0.3968212586       -0.4534166073        2.9410622948
 O          5.9748830645        3.1770197223        0.9687152539
 H          5.5342659618        2.7891308997        1.7493964557
 H          6.3916797954        3.9977512898        1.3036260635
 O          8.1331828632       -2.2859301210        4.2136204545
 H          8.8072950783       -2.9893162730        4.0851680814
 H          8.5962498742       -1.5026577330        3.8665412912
 O          8.4768878959        2.5146135247       -2.3187153666
 H          9.1202232459        2.8874887959       -1.6726872541
 H          7.7308544649        3.1651819351       -2.3648513584
 O         -3.3025826506        3.7323506005       -1.5312032987
 H         -2.5921697014        3.7970988368       -2.1811679654
 H         -4.0464477446        3.3026429201       -2.0121587236
 O          9.6729887634       -0.3877592577        3.0686556739
 H         10.1524364365       -0.9712103659        2.4531428687
 H         10.2380938136        0.4085667201        3.1864453952
 O          6.4219628433        2.0401415201       -5.1061906764
 H          6.0537634423        1.3706965821       -5.7075434557
 H          7.3540620606        2.1512849724       -5.3179279824
 O         -1.9295918192       -1.7283435249        7.1963941837
 H         -2.1366697379       -2.3365904547        7.9044449066
 H         -0.9638784925       -1.7604639463        7.0609536562
 O         -0.5118796369        5.8269150182        3.3368412343
 H         -1.2787725238        6.3596840364        3.0681912364
 H         -0.2015445925        5.4429019705        2.4765090178
 O         -8.3818390653       -2.4909389472        2.4090737345
 H         -7.5347644514       -2.0671739451        2.1300481359
 H         -8.7638625181       -1.8626435580        3.0381708499
 O          0.6969275505       -1.7258368876        6.5715098335
 H          1.3941557699       -1.9032890354        5.8920135939
 H          1.0531114010       -0.9583826224        7.0799667191
 O          0.0909441086        2.0204459771        2.6766012887
 H          0.4489305176        2.8625400175        2.9659997335
 H         -0.8789157604        2.0749929282        2.7838283428
 O          2.2826482985        3.4254155656        3.7678891737
 H          2.2749064221        4.3865509429        3.9527106692
 H          1.8153171594        2.9828183839        4.5049369691
 O          0.2057890027       -4.3664835793        5.4126392775
 H          0.2693012800       -3.6295099107        6.0279043194
 H          0.2967910668       -3.9731478677        4.5084922286
 O         -2.7508429206       -1.4019161819        4.5663192174
 H         -2.3669500634       -1.9769394638        3.8805588693
 H         -2.4914248625       -1.7286610174        5.4356696792
 O          0.7113733970       -7.1941277263       -0.0319717672
 H          0.8460015587       -7.8628942181        0.6404780071
 H          1.5304753165       -7.1048928734       -0.5595129342
 O         -3.2590070111        0.7780996366       -2.5481250827
 H         -2.8457298414        1.5146646229       -3.0390546321
 H         -3.0072107306       -0.0322461834       -3.0174409676
 O          0.9069044285        7.1008672196       -0.2718339383
 H          1.4105500167        7.3956049156        0.5115065465
 H          1.5969992385        6.8402155939       -0.9239309355
 O         -2.1616356656       -5.3764975992        4.3654536395
 H         -1.3842913611       -5.2171432385        4.9219307800
 H         -1.8603054348       -5.9601791071        3.6322395166
 O         -5.8530063723        0.4039255602       -3.6505933992
 H         -6.7428856522        0.4150456692       -4.0356283850
 H         -5.2889432258       -0.0256504867       -4.3049654875
 O          4.8479555056       -1.3859297045       -4.0144820969
 H          4.8818398827       -2.2896107564       -3.6609945941
 H          5.4468222023       -0.8114240176       -3.4898773223
 O         -9.7133975768       -2.3321350916        0.0534508458
 H         -9.2844543355       -2.4262685238        0.9306536302
 H         -9.5777718453       -3.1805942313       -0.4058964092
 O         -2.0111241781       -3.2297286735        2.7834646530
 H         -2.1434305474       -3.5271287643        1.8649163985
 H         -2.1926032312       -4.0077249313        3.3526778219
 O         -4.8198907854        3.4783299035        4.7677032541
 H         -4.3627190075        3.6059208661        5.6095546410
 H         -4.6201086450        2.5587543441        4.5083840964
 O          0.1315291814        4.8986586694        0.9703932441
 H          0.3947722769        5.6783435757        0.4322328381
 H          0.8589315242        4.2472392383        0.8965898167
 O         -0.5679296700       -2.2071444292       -6.0313229418
 H         -0.0737899181       -1.7673130852       -6.7262579814
 H         -0.6970727905       -1.5148699354       -5.3363754212
 O          2.3984886508       -1.8937076701       -4.8965182519
 H          2.7910451810       -2.2051885298       -5.7456824703
 H          3.1655352666       -1.5156019098       -4.4277163744
 O          8.8919558471       -0.7940446693        0.2899404851
 H          8.3209607893        0.0014925985        0.3227713289
 H          8.3742872173       -1.5373208216        0.6535994412
 O          2.8598387189        6.3834805901       -1.9146999257
 H          3.3150491869        5.6334704047       -1.5093184227
 H          2.6971750856        6.1345261084       -2.8430428608
 O          2.1315741209        3.1779329896        1.0994696718
 H          2.2993982304        3.2331884392        2.0548193644
 H          1.8311666372        2.2635430151        0.9253743926
 O          0.5972426614       -3.3096494608        3.0287007058
 H          0.9408767011       -3.8453089026        2.2846311825
 H         -0.3410619226       -3.1036917831        2.8181093566
 O          4.7759404962        4.2309137732       -4.4292937785
 H          4.0520103883        3.8517725344       -3.8864638686
 H          5.2331197023        3.4778417172       -4.8273207098
 O         11.1793975344        0.7283047244        0.3310432682
 H         10.4354024431        0.1087210147        0.4452940293
 H         11.4814218266        0.5909589501       -0.5794450382
 O         -1.4330870751        3.8800970838        4.8549882733
 H         -1.9329768076        3.3530428215        4.1987429352
 H         -1.1085662737        4.6670982363        4.3571910819
 O          7.5322419271        1.0345619244        2.4476453578
 H          6.7811288069        0.4370261416        2.2987362528
 H          8.3175226229        0.4680697572        2.5897801339
 O          3.3254803681       -1.3669527893       -1.2498649146
 H          3.0628277847       -1.3234875678       -0.3124860803
 H          4.2972528555       -1.3046586414       -1.2216263630
 O          0.2592443022        7.2661948335       -3.6648149095
 H          0.9959305599        6.8266130830       -4.1168881396
 H          0.6176130744        7.5885659204       -2.8339152572
 O          3.8777224356       -2.5688716531       -6.9851016032
 H          4.4666676127       -3.2319036002       -6.5881605928
 H          4.4126725281       -1.7679312795       -7.0860454772
 O          6.3166221858        3.9861344324       -2.1923698194
 H          5.7358210814        3.2797493697       -1.8550898543
 H          5.8977637533        4.2744740319       -3.0226628184
 O          1.2313909363       -6.6508491604       -3.5202274119
 H          1.1602835443       -5.8255058812       -4.0254344110
 H          0.3547430395       -6.7925275643       -3.1326865217
 O          5.6462034142       -1.0047705148        2.3867255697
 H          6.2744950027       -1.7196019230        2.1714838126
 H          5.5847893645       -0.9890322304        3.3594981331
 O         -2.4567983506       -4.9153429753       -3.9458617189
 H         -2.8645968569       -4.6105496791       -3.1087513741
 H         -2.2107836596       -5.8282231423       -3.7957568963
 O         -4.6632138852        5.0033843124        2.5260946250
 H         -4.5639468309        4.5197750353        3.3661770365
 H         -3.8462212554        5.4957917900        2.3436509145
 O         -6.9857737478       -4.8732857370       -3.0753241530
 H         -6.4416127973       -5.5850443080       -2.7205643588
 H         -6.4667194145       -4.0547595873       -2.9508943134
 O         -4.1009334533        5.1828935638       -4.1835742219
 H         -4.5166433457        4.3621530497       -3.8633680286
 H         -4.7824587914        5.8543846389       -4.1123337812
 O         -5.6749306087       -2.5144934467       -2.9982986577
 H         -5.6736861424       -1.8227962953       -2.2907186060
 H         -6.2224352590       -2.1812187729       -3.7212165149
 O          2.3219038371       -1.9905978750        4.5394376642
 H          1.7857640799       -2.5074226763        3.9031499601
 H          2.3361013177       -1.0843983989        4.1691150469
 O         -4.5218049846        6.0681934681       -1.0445785967
 H         -3.7793361006        6.6611076500       -0.8946844523
 H         -4.1075875689        5.1879484761       -1.1994189125
 O          5.9629592390       -0.8314583522        5.0925334194
 H          6.7656560107       -1.3708330848        5.0067753671
 H          6.2830128604        0.1072527498        5.1093118335
 O          1.4693098585        3.5362973133       -5.6502356518
 H          0.7817656833        3.5072292673       -6.3194653488
 H          1.1419632567        2.9191335873       -4.9473148956
 O         11.2446522015       -2.0598730086        1.5326178579
 H         12.1411179274       -1.7918511621        1.7371227305
 H         11.1974002297       -2.0959271931        0.5563106803
 O         -9.7485243605        3.8048387645       -0.4787684750
 H        -10.3777196925        4.5115657233       -0.3433912348
 H        -10.2166929082        2.9569544988       -0.2481518315
 O         -3.0253181896        3.5082410080        6.9226341085
 H         -2.8781026034        4.1031812725        7.6564171401
 H         -2.3861717873        3.7564173386        6.2138583988
 O         -9.1861878811        2.4613658752        3.8796305844
 H         -8.8220457116        2.7661575626        3.0207282363
 H         -8.8975468284        1.5361148432        3.9748979218
 O         11.1158496043        0.6642582156       -2.4331869746
 H         10.2488985280        0.1939349038       -2.4843907527
 H         10.9075592097        1.5990827261       -2.3637702146
 O          2.9079322903       -6.4611732452       -1.4700428129
 H          2.4453118027       -6.6647442138       -2.3158199189
 H          2.7844124152       -5.4937208414       -1.3904835179
 O          3.6817249439       -3.8440305337        2.4288728459
 H          4.5748263148       -3.7377709037        2.8090765345
 H          3.1830625790       -4.3483973456        3.0945577860
 O         -3.0689775784       -3.2243148791       -5.9465052035
 H         -2.9129737166       -3.9741505184       -5.3436775986
 H         -2.1848340907       -2.9112819021       -6.2058450994
 O         -8.0140910631       -1.2258850318       -1.6412052010
 H         -8.6593963898       -1.3493060976       -0.9103476517
 H         -7.9729974086       -0.2876212575       -1.8557344360
 O          6.0453103008       -3.9119174106        3.6365214385
 H          5.5856808479       -3.8188854319        4.4920284248
 H          6.8404471404       -3.3503587329        3.7042506502
 O          5.4377857287       -4.3518565600       -5.5417812922
 H          5.4086629751       -5.2775083182       -5.7801730020
 H          5.0147263014       -4.2753985321       -4.6598102259
 O         10.0346932996       -3.9163995793        3.2981649963
 H          9.5925047843       -4.5099130888        2.6735478652
 H         10.5360095668       -3.3022517201        2.7409159121
 O         -9.0128783760       -4.6094257299       -1.3227276167
 H         -8.7062227453       -5.1763196756       -0.6057846122
 H         -8.3117279000       -4.6948292257       -2.0080016069
 O         -5.3463313134        3.1742511460        0.6696304368
 H         -5.0481544902        3.8410570386        1.3177807547
 H         -5.8934699353        3.6392131980        0.0115942426
 O         -5.1941354628       -2.3077834966        4.1074897057
 H         -5.0858077017       -3.2810665784        4.0571293224
 H         -4.3030418035       -1.9305592811        4.2832061728
 O         -5.0806240081       -1.3779723828       -5.7971863600
 H         -4.4541144857       -2.1111995506       -5.9337653725
 H         -5.9610882094       -1.7597993825       -5.8756863660
 O         11.0086310642        1.8975826876        2.8719676652
 H         10.3271984808        2.5666206470        2.6984210430
 H         11.3455470262        1.6390730058        2.0033076431
 O        -11.6569948801        1.7801691035        2.9064642551
 H        -11.6106809327        0.8125058574        2.9853362515
 H        -10.8743584173        2.1255977623        3.3788097569
 O          1.9916916758        6.0126308049        4.3934544355
 H          1.9807132234        5.7404922485        5.3340799475
 H          1.0605209503        6.1145299839        4.1238625377
 O          6.0020664930       -6.0718517614        1.8875701410
 H          6.0576840587       -5.3570826227        2.5449754727
 H          5.0748312835       -6.3635238410        1.9067688015
 O        -11.1252258568       -0.9124742497        2.4699524651
 H        -10.3381324608       -0.7283488014        1.9355123174
 H        -11.7246079036       -1.3951684137        1.8999035652
 O          0.8065336661       -4.1107493454       -4.6395759458
 H          0.1691147068       -3.6621816339       -5.2216785706
 H          1.5491817801       -3.4855568552       -4.5991306631
 O         -9.4130915677       -2.6006084796       -3.3930734899
 H         -8.8401816881       -2.1369757909       -2.7300111311
 H         -9.7031614059       -3.4055282626       -2.9554670624
 O          7.6468310386       -2.9157018530       -4.5697060308
 H          7.8208730593       -2.1061741147       -5.1030493040
 H          6.9775849338       -3.4225407334       -5.0512801633
 O          6.7412214711        5.3925666955        2.2137748760
 H          6.1352181509        5.2753189376        2.9690333846
 H          6.2887054812        6.0365947204        1.6467150850
 O         -6.9251927387        2.5877791647       -5.7828908605
 H         -7.2717122006        3.1254209482       -5.0505204097
 H         -7.3400296158        1.7191817430       -5.6993921435
 O          8.8137792319        3.4185681917        2.0198858141
 H          8.2279941967        2.6413747148        2.0773853210
 H          8.2742047850        4.1952563675        2.2109238501
 O          9.7842323643       -3.3742174276       -2.9583084539
 H          9.4457267181       -4.0827710287       -2.3890859800
 H          9.1998117340       -3.3685969109       -3.7349298864
 O         -1.2066810879       -6.5223073470        2.1630669680
 H         -1.1717018042       -5.7561158310        1.5594628568
 H         -0.2917449707       -6.7644718259        2.3952330579
 O          4.5000556808        3.2476780751        6.1030480867
 H          5.4354187079        3.0857450813        6.2520199124
 H          4.1275504044        2.3661608003        5.8881764005
 O         -4.8245963836       -4.9080791137        3.7977031220
 H         -4.0263142414       -5.2207075624        4.2417333487
 H         -4.6067551718       -4.9225777765        2.8365078288
 O         -8.7191994107       -0.2446867897        4.0754387831
 H         -7.8825538486       -0.2908678397        4.6174876846
 H         -9.4505452674       -0.4683559831        4.6506273105
 O         -8.0291000230        4.1113499527       -3.7708167510
 H         -7.3998033106        4.7896462951       -3.4419777636
 H         -8.7912716060        4.5806954842       -4.1078354194
 O         -1.8543590323        6.9309517430       -0.5308904219
 H         -0.9343607338        7.2051783118       -0.4045580591
 H         -1.8200212631        6.3678899465       -1.3336392348
 O          3.3816127696        1.5891750704       -5.7389856798
 H          3.3200303052        1.2873642915       -4.8131475497
 H          2.9248919433        2.4468000844       -5.7722913936
 O          2.4459086366        5.7944540062       -4.5624520722
 H          2.0052078309        4.9960170678       -4.9203403692
 H          3.3833775900        5.6359279914       -4.7327074545
 O         -7.5715732661       -5.0386621989        3.0203236083
 H         -7.8974932882       -4.1235868494        2.9363131302
 H         -6.7241177139       -5.0030699192        3.4826274809
 O          9.1037011348        1.4497984503       -4.6795098859
 H          8.8711031591        1.8285404726       -3.7990747224
 H         10.0306353941        1.2107227273       -4.6293906823
 O         -6.5119651988       -0.4252632080        5.4445770013
 H         -6.1728742697       -1.2818532341        5.1242626635
 H         -5.8540822142        0.2073170714        5.1085966991
 O          8.2507063780       -5.0475450192       -1.3431961378
 H          7.6218261967       -5.7648420783       -1.4717933624
 H          7.7027525723       -4.2365403786       -1.4775879782
 O         -0.2900268332       -0.0022590789        4.6652021180
 H         -1.2147077845        0.1875002013        4.8909041946
 H          0.0068239489       -0.6699953995        5.3074800234
 O        -10.8068587364        1.6241497185        0.4250513506
 H        -10.0051398902        1.1119466922        0.6906974757
 H        -11.2696057461        1.7980659726        1.2817182542
 O          1.6870276959        0.5523115944        7.4526871542
 H          1.1496605881        1.2685601443        7.0872744362
 H          2.5004908937        0.5754203778        6.9172205212
 O         -6.4696475225        6.2370081462       -2.9561567844
 H         -7.0917633000        6.8052036481       -2.4974806485
 H         -5.7396904111        6.1106025311       -2.3134196425
 O         -5.3327025078       -6.4690497474       -1.4099518834
 H         -4.6842720565       -7.0400300602       -0.9806185059
 H         -5.9967462455       -6.2562032823       -0.7278409232
 O         -7.0608031806        6.5345518821       -0.1057751038
 H         -7.2612998906        6.4186482844        0.8351157416
 H         -6.0927620312        6.5457191450       -0.1781427297
 O         -7.1104042285        4.0620334963       -1.1364123305
 H         -8.0318461218        3.7705517914       -1.0936892156
 H         -7.1352775471        5.0007925045       -0.8542985832
 O         -5.3490110710        2.9681891641       -2.9658774294
 H         -5.4857389181        2.0252375006       -3.1990358760
 H         -6.0978188035        3.2593212695       -2.4245226457
 O         -2.4951711371        4.3705868812        0.9831771666
 H         -2.8393642320        4.1282643132        0.1108883537
 H         -1.5504784220        4.5736073646        0.8652302081
 O         -8.3805400605        1.6037128147       -2.4009369505
 H         -9.1952192695        1.1714139008       -2.7100001428
 H         -8.2992764920        2.4358277681       -2.8846269044
 O         -7.4804497337       -2.7031916279       -5.1918418708
 H         -7.1961392755       -3.6190376554       -5.2425554495
 H         -8.2582453166       -2.7243728190       -4.5862844595
 O         -7.2104293949        5.7424773651        2.5356308563
 H         -7.4668735939        5.4986969568        3.4515978049
 H         -6.2416346763        5.5975154934        2.5239656908
 O         -3.0381740457       -6.9864259382        0.0752856000
 H         -2.4550127234       -7.1597370897        0.8267966335
 H         -2.4476102715       -6.8267681211       -0.6899336715
 O          5.6863973839       -6.0662960006       -0.9073679868
 H          4.8308569027       -6.4086997987       -1.2004858516
 H          5.8155470974       -6.3006510788        0.0262206980
 O         -6.0771187173       -1.3105173479        1.8371892463
 H         -5.6700692127       -1.6617987857        2.6611999488
 H         -6.2304206650       -0.3611840320        1.9906336875
 O          4.8459174391        6.6724027812        0.6309281685
 H          4.9444065091        7.2415858445       -0.1330565798
 H          4.5169655601        5.8113392896        0.2768111660
 O         -8.7878026931        0.1361482000        1.2357695690
 H         -8.5060551041        0.2514841841        2.1527928723
 H         -8.0160773923        0.4061134427        0.6939836356
 O          4.4512522709       -3.1780621445        5.6876880863
 H          3.6905898189       -2.7587544317        5.2358486037
 H          5.0091998577       -2.4405061496        5.9546831161
 O         -1.6910522858        5.6054746757       -2.8778271315
 H         -1.0793324810        6.2339039830       -3.3124048476
 H         -2.4757930305        5.5082208509       -3.4472302535
 O         -7.4926122945        4.4624814186        4.8627246384
 H         -6.6165239034        4.0488770851        4.8899757990
 H         -8.1374094982        3.7534285625        4.6992564420
 O          4.7868102292        1.7902624572       -1.5124664119
 H          5.4467610680        1.2029077326       -1.9207075329
 H          4.6237709965        1.4568572199       -0.6134387074
 O          8.9038527367       -0.8181162018       -2.3503356723
 H          8.8957703006       -0.8653039065       -1.3631188165
 H          9.1881308777       -1.6998685548       -2.6477349197
 O          2.1173943907        4.5700841328        6.6665820243
 H          1.5507076660        3.7998597791        6.5411229011
 H          3.0231928840        4.2250379165        6.6550381206
 O         -8.0371976310        3.3753984291        1.6400775277
 H         -7.7370703631        4.2673940454        1.9253937443
 H         -8.6396253593        3.5177289104        0.8924014282
 O          6.7729138081       -3.0024007143       -2.0482387443
 H          7.1274990800       -2.7864905795       -2.9332901522
 H          6.5441939672       -2.1730801796       -1.5782174349
 O        -10.3973575719       -0.0217867365       -3.3498729392
 H        -10.2452297830       -0.9596983752       -3.5467630027
 H        -10.9582263563       -0.0704226148       -2.5403130399
 O         -4.2943645421        2.8470530689       -5.7359292636
 H         -4.1487032176        3.6927520831       -6.1606803328
 H         -5.2703239196        2.7056006393       -5.7256788590
 O         -3.2961060715       -0.2317465951        2.0427249977
 H         -3.4202837167        0.3496422479        1.2525790521
 H         -3.5048774421       -1.1244778970        1.7024849287
 O         -4.3818994008        0.8633641743        4.2521396649
 H         -4.0506608868        0.3216284324        3.5031405282
 H         -3.6918485413        0.7571872090        4.9356159803
 O          3.4188310315       -6.5933376149        1.2777613932
 H          3.3956887954       -6.8265089641        0.3424396591
 H          2.9335940593       -5.7387610481        1.3365233429
 O          2.5114294605        7.4387124671        1.8712437231
 H          2.4247725056        7.0231526490        2.7343418062
 H          3.3950334831        7.2057969691        1.5330204315
 O        -11.5748383446       -0.5280448236       -1.0222972585
 H        -11.4415100581        0.2842860915       -0.4984251538
 H        -10.9994642017       -1.2024641926       -0.6284370476
 O          7.2702216176       -2.7722057579        1.1955540215
 H          6.5134782095       -3.1054800953        0.6632450862
 H          7.8208308421       -3.5573196533        1.3827758403
 O         -2.6622793685        6.9313686241        2.0674550822
 H         -2.9943092346        7.8274286933        2.1010893732
 H         -2.3909892546        6.7683367547        1.1372748746
 O          6.5808883885        1.7214040692        4.8597461296
 H          7.2824837894        1.6365394968        4.1935276077
 H          5.8072927753        1.9676850768        4.3107559909
 O          3.6194621919        0.7439485809        5.5417044180
 H          4.3630075995        0.1337558726        5.4788667063
 H          3.1872337456        0.7412017186        4.6668252742
 O         10.1185631995        3.1544968975       -0.3646734012
 H          9.6157057874        3.4339624401        0.4211076174
 H         10.5552843572        2.3275402842       -0.0860108293
 O         -4.3614020001       -4.8877747153        1.1835945118
 H         -5.2753923224       -5.0981289912        0.9138518019
 H         -3.8058355320       -5.5982076343        0.8051133603
 O          8.5512366247       -5.1298380722        1.3147331228
 H          8.6152789342       -5.1509601999        0.3365504690
 H          7.8127250295       -5.7053607764        1.5504167697
 O          1.2685845376        0.7265927156        0.4575594745
 H          0.6223135439        0.3844331904        1.1022439409
 H          0.7154148886        1.0067626746       -0.2864372601
 O         -0.8602139561        1.6378609633       -0.9780146145
 H         -1.0754381024        1.0821587420       -1.7327189887
 H         -1.6485030335        1.6487796067       -0.4144818711
 O         -3.9400012944       -3.5498925025        7.0131490718
 H         -3.6671739151       -4.1807365023        6.3443826135
 H         -4.6179114019       -2.9934111847        6.6239845764
