  99
       -167.97049821
 O         -0.9168652588       -4.5938619404       -0.4914819942
 H         -0.2072014951       -4.6856821886        0.1534739352
 H         -1.4571757168       -3.8234938163       -0.1615985626
 O         -2.3792859198        0.1671013360       -3.5957644680
 H         -3.1273972944       -0.2312563696       -3.1346750372
 H         -2.3961643352        1.1094875532       -3.3664029946
 O          6.0165661111       -0.9298678964       -0.2292403037
 H          5.5544079170       -1.5475142202       -0.8200112485
 H          5.9647373045       -0.0661342579       -0.6717584889
 O         -5.1839004837        0.2808952486        2.2679671298
 H         -5.8376719898        0.4152799646        2.9551086023
 H         -5.1813804302        1.0964660488        1.7161562440
 O          0.2171953617       -0.6075836834       -2.9895011032
 H         -0.6627913321       -0.3314753869       -3.2952351449
 H          0.2127193199       -1.5713119227       -3.0005700472
 O          0.5000921438        2.6387808943        0.1352829194
 H          1.3373745502        2.4893275869       -0.3481156619
 H          0.0346362306        1.7907347634        0.1558985382
 O         -2.6407570858        2.8123535279       -2.7136335374
 H         -2.6182303400        3.3956473206       -3.4729631037
 H         -2.1845927802        3.3177201427       -1.9778561627
 O         -5.1904807946        2.4630475347        0.7417265799
 H         -5.8186655418        3.1833375183        0.7994055851
 H         -5.1170673109        2.2401473854       -0.2367076770
 O          5.3938379528        1.4508478523       -1.4996354845
 H          5.8620311751        2.2839916762       -1.5396584642
 H          4.4484303810        1.6674208063       -1.2973196415
 O          2.1030504145       -0.3453673268        0.1512491102
 H          2.9349565561       -0.4038858816        0.6820077137
 H          2.0365924272       -1.1861459331       -0.3430049571
 O         -4.7060184432       -0.8122486578       -2.1541779765
 H         -5.2495962901       -1.3431806439       -2.7379250260
 H         -4.7997543059       -1.1879923844       -1.2595803273
 O          2.7462238064       -2.2174041128        3.1718476300
 H          2.1285573903       -1.4588249180        3.0389655929
 H          2.7211585842       -2.4205021046        4.1068085860
 O          0.1054097111       -3.4927242607       -2.6435287787
 H          0.1966754154       -4.1435971215       -3.3394840799
 H         -0.3693719519       -3.9427398944       -1.8915613260
 O          2.0091861757       -2.8158658501       -0.8474486139
 H          1.6658759112       -3.2210069867       -0.0226259478
 H          1.3581927376       -3.0039060383       -1.5499783870
 O         -5.0103674266        1.9199077146       -1.7753364698
 H         -4.9522044286        0.9659449899       -1.9484788608
 H         -4.1797770767        2.3003482546       -2.1302226575
 O         -1.5719441806        2.2766319075        3.8935067770
 H         -1.9596264480        2.7888826006        3.1631539902
 H         -0.6158770603        2.3301842470        3.7515835274
 O          1.0400673505        2.3698864341        2.8020942230
 H          0.7155451548        2.6237432698        1.9154501112
 H          2.0101986971        2.4502867922        2.7125171789
 O          1.0670320292       -3.7133326681        1.5220539636
 H          0.2776226467       -3.3405683457        1.9447256788
 H          1.8003867739       -3.3842877662        2.0701848083
 O         -0.7894590758       -2.2156917596        3.0019372457
 H         -1.5556852191       -1.7748025655        3.3878616961
 H         -0.1400794944       -1.4885886995        2.8962707743
 O          3.5696925559        2.2662156484        1.8269098347
 H          3.9103996276        1.3609770113        1.9007014975
 H          3.3987639894        2.4044707610        0.8888541718
 O          4.4587493051       -2.5243881242       -1.8818441160
 H          3.5721252422       -2.6402015085       -1.4786077081
 H          4.7330828895       -3.3834246911       -2.2021492040
 O          2.8033330609        1.8832946659       -1.0689315227
 H          2.5409282149        1.7825501359       -2.0301692940
 H          2.5515914517        1.0134837633       -0.6772066088
 O          4.2692440063       -0.4273622551        1.6625880111
 H          5.0147201864       -0.6636590439        1.0556127213
 H          4.0957060128       -1.1827825783        2.2388079476
 O         -1.5132910065        4.1722674886       -0.8022499490
 H         -0.6419981244        3.7767395974       -0.6090612494
 H         -2.0064649263        4.0310998212        0.0262283995
 O         -5.1368742953       -1.7293779243        0.4068110407
 H         -5.1320415493       -1.0327388056        1.0915854209
 H         -5.7362162264       -2.4127394183        0.7082224312
 O          4.4808545684       -0.2388750197       -3.5484362288
 H          4.4208304628       -1.0720393022       -3.0590268943
 H          4.9641021779        0.3660417980       -2.9655290030
 O          2.1748851554        1.2350666739       -3.4992998014
 H          1.4509726338        0.5946710226       -3.3731740357
 H          2.9633918538        0.6985401794       -3.7103560240
 O          0.9957891260       -0.2818034637        2.5737227671
 H          1.2087150564       -0.2848290996        1.6162942077
 H          0.9630357469        0.6722991478        2.8121988813
 O         -2.5189007885       -0.1029326208        3.1570431692
 H         -2.1841002871        0.7255228470        3.5765545800
 H         -3.4523784664        0.0436935003        2.9540165283
 O         -2.5942127750        3.0679458736        1.4470974056
 H         -3.5302825173        2.8954591761        1.2583524440
 H         -2.1110941629        2.2605970215        1.1761560082
 O         -1.3652957635        0.5878571234        0.7649860373
 H         -1.6529250492        0.2338007909        1.6309135203
 H         -1.4286596069       -0.1449356392        0.1444296509
 O         -2.0525103456       -2.3120417176        0.5031139536
 H         -1.6831664363       -2.2817856527        1.4074891341
 H         -3.0028514957       -2.1716310367        0.5607001517
 O          6.2542705337        2.8063391372        1.0126080272
 H          6.5586233691        1.8991849050        1.0838667143
 H          5.4124093609        2.8505882295        1.4875560223
