  84
       -142.51055416
 O         -0.2928800710        1.6893136116       -2.4623941968
 H          0.3441520815        1.2313164812       -3.0388039774
 H         -0.4505576245        1.0381148944       -1.7163766087
 O          1.5723453323       -0.0254928827       -3.4808055319
 H          1.6992371416       -0.3508953725       -2.5676818211
 H          2.4149271655        0.3861915984       -3.7082438336
 O         -5.4044939914        0.2536841679       -1.3290990086
 H         -4.9387529760        0.9471652803       -0.8424213178
 H         -5.2165959355        0.4241707956       -2.2554320709
 O          0.8804106116       -3.2882951972       -0.5198179688
 H          0.0412307403       -3.2988466671       -0.0090052020
 H          0.5969076724       -3.2845668610       -1.4490833509
 O          4.9154764748       -0.9018587266        1.1144240916
 H          4.2048556231       -1.5149064882        1.3818462168
 H          5.0649304179       -1.0803038153        0.1750094709
 O         -1.7514318307        1.2896405721        2.9240891621
 H         -1.5185525908        1.9478991481        2.2464868435
 H         -2.7209020565        1.2626255466        2.9339454762
 O          3.4730870515        2.7824180996       -1.2449311528
 H          3.8864582947        2.4207271421       -0.4447749725
 H          3.6803077172        2.1666203287       -1.9643751090
 O         -3.5939237409       -1.6706901044       -0.5620940668
 H         -4.3505843515       -1.0729600087       -0.7133769236
 H         -3.2168405930       -1.7940385533       -1.4494903169
 O         -3.3647164988        1.7061470116       -0.0703227976
 H         -3.7262364726        1.4143202210        0.7872222844
 H         -2.6230783427        2.2904483901        0.1527902159
 O          4.5566845765       -1.3125369735       -1.6408524741
 H          4.5950404617       -2.1951863827       -2.0119823582
 H          3.6279501227       -1.1899337180       -1.3228656285
 O          0.8808753854        3.3267268093       -0.6738330879
 H          0.4381951008        2.8629225682       -1.4166972435
 H          1.8292107337        3.3158692097       -0.9106840321
 O         -2.6451937461       -1.4364423508       -3.1354376833
 H         -2.7161171734       -0.4458074424       -3.0334002286
 H         -3.1639608713       -1.6702146317       -3.9049496271
 O         -1.5314068546       -1.4924082708        2.9784128583
 H         -0.6370305212       -1.6818509501        3.3119255922
 H         -1.5834552159       -0.5208075829        2.9345779677
 O          2.7925815803       -2.5808093535        1.5819086280
 H          2.2429516384       -3.0606245612        0.9514481784
 H          2.1967576420       -2.2751754157        2.2871243543
 O         -1.4868130770       -3.0716832659        0.7283155602
 H         -2.2346673622       -2.7325279251        0.2208536295
 H         -1.4974068897       -2.5881839252        1.5733347348
 O         -0.0506541112       -2.3769867792       -2.9570204785
 H          0.4592652908       -1.6955173275       -3.4109125011
 H         -0.9837820126       -2.1319187050       -3.0692051086
 O          1.9371947767        2.5983352295        1.9311775311
 H          2.8380125307        2.3155833871        1.7063511635
 H          1.5478172531        2.9131482183        1.1047949895
 O         -2.8977583504        1.1507945462       -2.7803723810
 H         -1.9865376780        1.4895039710       -2.8933048535
 H         -3.0887847142        1.3233586516       -1.8437380170
 O          1.1418673936       -1.5970494697        3.5918861920
 H          1.1320155484       -0.6024187316        3.6611694980
 H          1.4744087718       -1.9142562317        4.4322039791
 O         -4.4104135072        0.9140273584        2.3333979314
 H         -4.3827084970       -0.0838438999        2.3036641210
 H         -5.3027970303        1.1479712410        2.5876459707
 O         -1.2527344672        3.1941708561        0.9637402652
 H         -0.4644885365        3.2097397367        0.3832829291
 H         -1.3458126404        4.0864600074        1.2996991587
 O          0.8818605183        0.9929637765        3.8504230335
 H         -0.0657267459        1.1579812930        3.7505473914
 H          1.3166461845        1.5898521712        3.2112580695
 O         -4.1918641375       -1.6879377473        2.2041353482
 H         -3.3353872239       -1.8343464001        2.6332749607
 H         -4.0571078162       -1.8666801135        1.2621737761
 O          4.4501489545        1.6978528753        1.1383771499
 H          4.6014675057        0.7177049956        1.1638210430
 H          5.1720871320        2.0894273095        1.6305817999
 O          4.2305560530        0.8899674003       -3.1994553027
 H          4.4657072502        0.1121252567       -2.6521523005
 H          5.0274019900        1.1666368377       -3.6521983123
 O          2.0778345479       -0.9953858297       -0.9885013633
 H          1.8152277285       -0.4522916571       -0.2077062534
 H          1.7175904327       -1.8831577121       -0.7661986129
 O         -1.1730738655       -0.2518415767       -0.5280012808
 H         -0.7578633059       -1.1224675942       -0.5356863547
 H         -2.1042157927       -0.4030457797       -0.3081960846
 O          0.9668178674        0.2694312079        0.9698322710
 H          0.0692255044        0.3805554273        0.6290060571
 H          1.2807559502        1.1229082868        1.2954575151
