  534
       -906.56534072
 O          2.0844572874        0.9800531322       -0.7467375627
 H          1.5101525362        0.4370837414       -1.3050546871
 H          2.9665527141        0.9444170006       -1.1444592978
 O          3.6102046317       -1.5250733717       -1.6349205205
 H          4.0375607468       -0.6687930264       -1.7717832713
 H          3.3717423697       -1.5726629149       -0.6788540708
 O          1.0221199934       -1.0355278212       -2.2485552735
 H          0.6736387138       -1.1039229326       -3.1458768250
 H          1.9716286644       -1.2663070654       -2.2999483564
 O          0.6983920082        1.7594399705       -3.0904957924
 H          0.2472191760        2.1532429290       -2.3141782271
 H          0.8665214713        2.5449633250       -3.6490346967
 O          1.9605420840        3.5649785181        6.8294247651
 H          1.2297439199        2.9726023061        7.0757365243
 H          1.5534165915        4.4229306872        6.5828467509
 O          2.7787837615       -1.6740347347        0.8850579106
 H          3.1876361239       -2.3420047449        1.4476737413
 H          1.8561125984       -1.9429932656        0.7296599443
 O         -1.6029929651       -1.4644076422        5.4501570316
 H         -1.4579108679       -0.6302580160        4.9800861041
 H         -2.2656844199       -1.3058348449        6.1507497689
 O         -0.3743680370        2.7533267857        4.4878537353
 H         -0.8921926819        3.5345531642        4.7911690709
 H          0.4958146592        3.0532233447        4.1758870915
 O         -2.0401259600        3.3618210706        2.0902604389
 H         -2.4340061913        3.4265598468        1.1976440041
 H         -1.0788160169        3.2203612785        1.9675861126
 O          0.1091392429       -2.5047010768        2.9887903384
 H         -0.3958439843       -3.0110544223        3.6491603816
 H          0.8103119762       -3.1205723393        2.6835922991
 O          0.0350180312       -7.5156531818        1.4120099871
 H          0.8412407798       -7.6238585899        0.8886758453
 H         -0.7006673926       -7.6333049823        0.8090978156
 O          1.8559514807       -0.2054561480       -5.8689452200
 H          1.6578214674        0.6708635596       -6.2409469978
 H          2.3765403586       -0.0115989390       -5.0584327903
 O         -1.4325654811        0.8262851750       -4.3860395888
 H         -0.5746080687        0.9679802186       -3.9420960933
 H         -1.7486594704        1.7260796277       -4.5705690937
 O          6.1843802864        3.0386066685        0.3140660894
 H          6.7027954992        2.5611301828       -0.3479537202
 H          6.2702468996        2.5480275004        1.1460814055
 O          2.2650688895        7.1659168250       -1.1532929553
 H          2.4352708606        7.0758235317       -0.2081261030
 H          1.3542291314        6.8632640924       -1.2967530075
 O         -6.3107917162        2.3461975773       -4.4669782275
 H         -5.6424257318        2.6795467687       -5.0840576025
 H         -6.4435085947        1.4123023157       -4.6906526731
 O         -2.6651646107       -1.5942754558       -3.3802673146
 H         -1.8545580186       -1.2060440228       -3.7393287079
 H         -2.6527857539       -1.4890843657       -2.3886276931
 O         -8.5229420677        3.8363127913       -4.1825482694
 H         -7.7232974707        3.2713357073       -4.2795667011
 H         -9.2695043139        3.2361948197       -4.1114306753
 O         -1.5032535057       -4.3313745090        4.2750488518
 H         -2.3515879194       -4.5463103416        3.8377884281
 H         -1.7558593381       -4.1700667508        5.2013605660
 O         -1.9993710487        3.3581075369       -5.0782517000
 H         -1.3463481463        3.6447765708       -5.7584479122
 H         -2.1938101540        4.1230425907       -4.5068286498
 O          2.0442786093        3.5754691648       -0.4150855496
 H          1.9905551951        2.6093357843       -0.5991867498
 H          2.8168361543        3.6918825700        0.1683516952
 O         -1.9046062782       -0.0764454154       -6.8198502719
 H         -1.5973878306        0.1716191919       -5.9091500299
 H         -1.5991460155       -0.9714520229       -6.9947748619
 O         -3.4376188571       -2.0887833225        3.6201644669
 H         -4.0949853761       -2.6683792408        4.0335968977
 H         -2.7285772053       -1.9589419944        4.2857318274
 O         -1.3878447591        0.5466858780        3.5647865711
 H         -1.1578832505        0.3251271210        2.6399157504
 H         -1.1438411448        1.4856761293        3.7062855796
 O          4.4464717243        0.6263208811        1.1252241004
 H          3.5017303451        0.4717578578        1.3219076249
 H          4.9469937336       -0.0405122572        1.6054612396
 O          0.3016715235       -2.3319930146       -0.0704629790
 H          0.3846010461       -3.2978092264       -0.1796418319
 H          0.5415876234       -1.9308073069       -0.9303088889
 O         -0.1036617176        5.9848534337       -2.0142288139
 H         -0.0854275208        6.1881189832       -2.9559514327
 H         -0.9930557655        6.1991952859       -1.6912619279
 O         -5.7686484050       -1.5942663342       -2.6152368545
 H         -5.3314288956       -2.4367643141       -2.3711378501
 H         -5.7927259724       -1.1022627138       -1.7730031993
 O         -4.1491650723        0.6020736809       -3.6687632790
 H         -4.2603889679        0.6251770805       -4.6367023182
 H         -3.6180992389       -0.2049573041       -3.5025279078
 O          1.9412461586        0.9209006153        2.0511397343
 H          1.4256102870        0.5233780605        1.3366108111
 H          1.7464005422        0.4040254804        2.8605675615
 O          5.2338269394        3.5078025942       -2.3796672175
 H          5.6301144655        3.6797579954       -3.2431647143
 H          4.4212893586        4.0500399862       -2.3288198339
 O         -2.0051973881       -2.6682637405        1.4881763902
 H         -1.0846514405       -2.5112983867        1.8040531251
 H         -2.5379913209       -2.4499730790        2.2860031829
 O         -1.8326606356       -5.3167528293        1.2853080112
 H         -1.9400260784       -4.3436933891        1.4041098726
 H         -1.8418434337       -5.7071885182        2.1600566048
 O         -5.8370282011        1.5315956672       -1.7212642395
 H         -5.2440213807        1.1329356736       -2.3816396820
 H         -5.7863165803        2.4901628733       -1.8583113948
 O         -0.3985023330       -3.7386313810       -3.2694851419
 H          0.4594922239       -3.9981424889       -2.8831805218
 H         -0.2416136123       -2.8947604338       -3.7395370562
 O          4.2136554711        1.3667177909        4.0794326723
 H          3.8478932762        0.4729942354        3.9566551813
 H          4.3495904199        1.4742170626        5.0423942455
 O          8.3624355730       -2.9491051877        0.3416994494
 H          7.3899475053       -2.9658937266        0.3825296963
 H          8.5972423013       -3.3460076460       -0.5008925320
 O          4.1576027956       -3.6094911276        2.4665922697
 H          3.2701310433       -4.0175796420        2.4476617882
 H          4.4809919097       -3.7377587730        3.3751539457
 O         10.9728902814       -2.1949192135       -1.5152061515
 H         10.3115102121       -2.8600392847       -1.7550616803
 H         11.1028877975       -2.2492675298       -0.5537981038
 O          3.6288186839       -4.5129958322       -0.2352738031
 H          3.4301396611       -4.9380187544        0.6136265763
 H          4.3206908645       -3.8369242418       -0.0879143996
 O          3.1138601215        0.7718483636       -3.6942542523
 H          3.5195499596        1.4976482190       -4.2149038080
 H          2.2648870983        1.1092507661       -3.3516690280
 O         -1.3129098470       -5.2341750570       -5.2869386296
 H         -0.5699830112       -5.8185723063       -5.4666931138
 H         -1.0282886762       -4.7161674208       -4.4961810001
 O          2.2051687779       -7.6638749960       -0.4272227950
 H          3.0672209863       -7.5768017104       -0.8617738984
 H          1.5664005137       -7.4161560025       -1.1150072700
 O         -4.3368539060        3.2380016864       -6.2390430516
 H         -4.7033687664        4.1069378988       -6.0365802559
 H         -3.4538920424        3.2229564651       -5.7787611064
 O         -4.7987449789       -3.8231183003       -1.5570848802
 H         -3.8290039735       -3.8888774817       -1.6188806239
 H         -5.2039755687       -4.6234270215       -1.9480194751
 O         -4.2324346396       -0.0804185401        1.8273540958
 H         -4.9127018804        0.4608579573        2.2718717444
 H         -3.9667800538       -0.7491645390        2.4748296651
 O          7.7810160463       -0.0922829448        1.0507568035
 H          8.0255082790       -0.7669022055        1.7068888351
 H          7.2137403293        0.5356884647        1.5435290442
 O          0.5818639259        3.1904996794        1.7588742613
 H          0.9155900810        3.4572976131        0.8768705238
 H          1.0606413719        2.3587328818        1.9682852440
 O         -2.1234323798       -3.8321408849       -1.3005819141
 H         -1.5277242221       -3.6838898357       -2.0686748053
 H         -1.7514500065       -3.3448201170       -0.5592664280
 O          1.0645067093       -0.3541807753        4.1929407718
 H          0.2182662522        0.1205042226        4.1649182602
 H          0.8503032407       -1.2387340915        3.8213739178
 O         -2.2154504838        2.3817433011       -8.1619144523
 H         -3.0444773360        2.6702763556       -7.7648007106
 H         -2.0158483520        1.5060129368       -7.7936763501
 O          3.5474489153       -1.2236601702        3.9641722486
 H          2.9432807780       -1.9895136556        4.0872013047
 H          4.2370296300       -1.4965026082        3.3305136620
 O          1.6657233397       -4.4344325026        2.0619067313
 H          1.3215399090       -4.7156563697        1.1938895358
 H          1.3438110508       -5.0944817938        2.7106129180
 O          3.1002376170       -5.9338010282        4.4947780400
 H          3.3585925296       -6.1359805979        3.5783556841
 H          2.1902382041       -6.2544365910        4.5597644671
 O         -4.0255570515        3.3574588203        3.9172045081
 H         -4.7952200137        3.8673067182        3.6331298500
 H         -3.3671857219        3.3633347164        3.2046244467
 O         -1.0243416531       -2.9696664575       -6.7560436836
 H         -1.3130001991       -3.8095267796       -6.3471781213
 H         -0.0787232157       -3.1240971695       -6.9285926230
 O          1.3069377733       -5.9236852610       -4.8915276473
 H          2.2260471884       -6.0897821112       -4.6372557405
 H          1.3648270725       -5.1122564176       -5.4365044114
 O         -3.8661000044       -5.0097270393        3.1334709062
 H         -4.5244595369       -4.9958516312        3.8293671320
 H         -4.2387999208       -4.5093663901        2.3798080712
 O          3.7495352751        3.2434394042        1.7145234728
 H          4.0531585250        2.3339351386        1.5544416684
 H          3.0320090337        3.1932204048        2.3520980094
 O          5.1350038177       -3.5199778510       -2.5101970868
 H          4.6053209470       -2.7466805554       -2.2116882829
 H          4.5350341055       -4.1111640397       -2.9891251239
 O          1.7901773415        2.4845442617       -6.4412658631
 H          2.7442593769        2.4963334543       -6.5727974151
 H          1.6557087397        3.0195949547       -5.6316846713
 O          0.4705218865       -6.1264912138        3.7554682876
 H         -0.2768928717       -5.5542582935        4.0203616343
 H          0.1789248074       -6.7264732042        3.0521448471
 O          0.6488797460       -2.5347197241        6.6544211933
 H          1.1410206023       -1.7304409070        6.8813349445
 H         -0.1832405402       -2.2361837402        6.2497742405
 O         -0.0123980128        1.6372059479        6.8634368952
 H         -0.9203558249        1.5071115334        7.1860638069
 H         -0.1322015452        1.9730243377        5.9440667762
 O         -5.9250198645       -1.0244542396       -0.0296814646
 H         -5.3455877414       -0.6298553187        0.6575411593
 H         -6.0369562639       -1.9617794457        0.1926549371
 O         -2.7214838104        1.4287499063        7.1500502633
 H         -3.0715141321        2.3043119324        7.3551344081
 H         -3.0227886323        1.2669826983        6.2230777603
 O         -3.6410357654       -1.1362361488        7.1880410426
 H         -4.4360116867       -1.0335905785        6.6502315052
 H         -3.3876680081       -0.2427756175        7.4759732018
 O         -0.4173137188        4.0764253218       -7.0808124430
 H          0.4108158100        3.5710221593       -7.0394222967
 H         -0.9959077850        3.5673954630       -7.6832799082
 O          4.9757200459       -1.1181245244       -4.2603906739
 H          5.9104006733       -0.9197104718       -4.1342610863
 H          4.4636472941       -0.3524294277       -3.9554045310
 O         -4.6184963125       -3.3942685044        1.0743025833
 H         -3.7470381657       -2.9912512076        1.0043420942
 H         -4.8235792338       -3.6904063761        0.1625872897
 O          4.0280588404        1.7074623201        6.7244673199
 H          3.3756426898        0.9776488462        6.8059452709
 H          3.5185758232        2.5080831762        6.9124295758
 O          5.6265111217       -2.7052035621        0.1739256504
 H          5.9020711446       -2.0615325283       -0.5138023330
 H          5.4495828322       -2.2012185796        0.9769972668
 O          4.7380747759       -1.6250440936        6.2443928692
 H          4.2229086326       -1.4020637411        5.4198801381
 H          4.2033886530       -1.3047978514        6.9720624507
 O         -4.1292742917       -6.3239862950        0.2223951976
 H         -3.3796350436       -5.9334311473        0.7070404275
 H         -3.7394494888       -6.6381037915       -0.6037824059
 O          6.7871565084       -0.3750207931        4.9660762156
 H          7.6011852038       -0.8815669662        4.8970901835
 H          6.1731561552       -0.8593011866        5.5517851869
 O         -7.2247120026       -3.4521257417        0.2206366816
 H         -7.6893957893       -3.8073091311       -0.5651452397
 H         -6.8539979793       -4.2376785633        0.6593657922
 O          0.3876714778       -6.6645205492       -2.3157657121
 H          0.6096346100       -6.4226034721       -3.2290652387
 H         -0.5874564895       -6.7411131595       -2.2582193064
 O         -7.9202584078        1.8037345324        0.2384302957
 H         -8.0984612447        0.8581502441        0.1355700903
 H         -8.6186225571        2.2712509373       -0.2564296040
 O         -2.7430937400        5.9855369875       -1.2956573293
 H         -2.8481913080        5.1264270099       -0.8254721420
 H         -3.5026467412        6.5029882045       -0.9972228147
 O         -8.4527217842       -4.6395856680       -1.8294051486
 H         -7.7614303975       -5.2516182495       -2.1178679698
 H         -8.4713036266       -3.9318883623       -2.4946248655
 O          7.7659159902        1.8118339939       -1.5836104803
 H          8.3076293521        2.6325770886       -1.6063997334
 H          8.4275072339        1.0996431990       -1.5600444270
 O          4.3502482728        2.4860826541       -5.2892313074
 H          5.2576476103        2.2938511192       -5.0094368584
 H          4.2469018786        3.4632230041       -5.2416329774
 O          4.8086261755        0.9844659758       -1.4582645382
 H          4.7988412704        1.0341571579       -0.4779996561
 H          4.9910905839        1.8865280025       -1.7891475806
 O         -5.5514198133        5.1895672423       -4.5230724188
 H         -5.6678396186        4.8115766354       -3.6227784008
 H         -6.4404698080        5.3655143045       -4.8340783794
 O         -0.7082126156        3.3341652524       -1.5129841195
 H         -1.5261239748        3.3132559256       -2.0243209946
 H         -0.3309874363        4.2234893810       -1.6126818071
 O          2.3031628326        3.2010818618        4.2055375426
 H          2.2234627378        3.2955058947        5.1793636522
 H          2.9484155099        2.4714455156        4.0788182668
 O         -5.3766750890       -3.4701675669        5.1253167103
 H         -5.6196379509       -2.5621234523        5.3750798391
 H         -6.1771260658       -3.8550738318        4.7354775493
 O          5.2083687938       -4.3258181030       -5.7524370338
 H          4.7674677450       -3.5586541524       -6.1518912161
 H          6.0336077389       -3.9963753333       -5.3653056915
 O        -11.2013284493       -0.2470785861       -0.8324294650
 H        -10.2460678066       -0.3580232991       -0.6847878353
 H        -11.5467370603       -1.1444800153       -0.8170604249
 O         -5.7409499671        3.1711854113        0.8979139483
 H         -6.3111850701        3.9634088874        0.9131311212
 H         -6.2111817766        2.5196094843        0.3489200974
 O        -10.5305215223        1.6024991885       -2.8499383243
 H        -11.0308174585        0.9182016215       -2.3827209337
 H         -9.6122334229        1.2635563547       -2.8914278628
 O          4.4846054654        5.1241772997       -0.0615807137
 H          5.0512895386        5.8566566313       -0.3059828083
 H          5.0596451259        4.3567254615        0.1264257530
 O         -6.2183696709        1.3885390952        2.9093825912
 H         -6.0611481955        2.1265729364        2.2930389377
 H         -6.0606673860        1.7304261791        3.8036003074
 O         -2.0332857574        5.8254016936        3.0187409822
 H         -1.0962358202        6.0712656852        2.9358546900
 H         -2.0726465128        4.9173177507        2.6287361701
 O          5.8431756027       -1.3796519490        2.6217753150
 H          6.3013924105       -2.2266199067        2.8049620026
 H          6.1885162664       -0.7685849231        3.2995826148
 O          2.9491728778        4.9462785372       -2.4525722439
 H          2.5577226758        4.4050058171       -1.7181366587
 H          2.8721463544        5.8558622099       -2.0889006074
 O          3.5795250512       -6.4336591321        1.7918277671
 H          3.1696234043       -7.0587231114        1.1814892954
 H          4.5426153817       -6.4586961178        1.6747073888
 O          8.8291206708       -1.4643144084        3.2816951855
 H          9.6786527036       -1.6136754338        2.8340840165
 H          8.3963509942       -2.3343009021        3.3069725414
 O         -4.4691201622        0.4567763001       -6.3673165274
 H         -4.5340353433        1.3932108190       -6.5918766111
 H         -3.5624183593        0.1749651741       -6.6207678243
 O          0.7892489133        5.6586748981        5.6363354582
 H          0.8146177892        5.6766809697        4.6561175286
 H         -0.1454342227        5.5166510298        5.8403016078
 O          2.0419083553       -4.2149757110       -2.3044056099
 H          2.4735781468       -4.9003515451       -2.8338875827
 H          2.4939977149       -4.2179959763       -1.4375330862
 O          6.7871710154        5.0653499589       -4.2734862906
 H          6.9767577061        5.4903251922       -3.4253331610
 H          7.6190394170        4.6800526318       -4.5821909212
 O         -1.8085470500        4.7522701026        5.4643176607
 H         -2.6284767595        4.3975533274        5.8466859888
 H         -2.0561991595        5.2270733625        4.6421889346
 O          7.8559774053        3.4574739725        3.9567176715
 H          7.5413536445        3.1792634961        4.8395172703
 H          7.1678546072        4.0699503865        3.6250138155
 O         10.1338978831        1.0828688570        1.0316241216
 H         10.2491212668        1.1616979074        1.9999502797
 H          9.2164282683        0.7292041538        0.9277185576
 O          6.7728370454       -0.8392735362       -1.3544452643
 H          7.2821085101       -0.5823095274       -0.5632683112
 H          6.1228101586       -0.1169371642       -1.4855356811
 O         10.6136248500       -1.7136574111        1.2012358168
 H         10.5825987151       -0.7555745299        1.0447883336
 H          9.7635957244       -2.0874850641        0.8984861954
 O          7.0283186033        5.4122769084       -1.5594180481
 H          7.1239300963        5.6471421311       -0.6059915160
 H          6.4012234298        4.6617889661       -1.5923111667
 O          9.0317116208       -4.1204963615       -2.2704506909
 H          8.4111009748       -3.8030708167       -2.9913188985
 H          9.6293601782       -4.7386396695       -2.6908596316
 O         -8.1412359095       -2.4297296277       -3.3857653898
 H         -8.4879540237       -1.7653116183       -3.9816044251
 H         -7.2897720578       -2.0714243292       -3.0186551310
 O          4.1697038405        5.1250464236       -5.0142560389
 H          5.1139871685        5.3152138815       -4.9057041537
 H          3.7539732428        5.2941238562       -4.1594909118
 O          1.6087269544       -3.6172305863       -6.3299396582
 H          2.3433902170       -3.5427405207       -6.9425327238
 H          1.8966707458       -3.0844583611       -5.5418350060
 O         -6.6237270382       -4.1937311641       -4.8429489721
 H         -7.2312939727       -3.5410364471       -4.4544723221
 H         -5.7653681550       -3.7512718859       -4.9404281330
 O         -4.4879945320        6.5930979348        2.2021204480
 H         -5.0374195284        6.0988230307        2.8207809685
 H         -3.5634835756        6.4305940254        2.4650542066
 O          7.2829539494       -3.3520994198       -4.0536078332
 H          7.5153705694       -2.4116225077       -4.1875065710
 H          6.4818897229       -3.3326038908       -3.4787197278
 O         -0.1500153847       -1.5031776110       -4.7079500913
 H         -0.5708726315       -1.9935331169       -5.4413325501
 H          0.6099673087       -1.0410869393       -5.1349463240
 O          9.7199901845        1.2626716745        3.6633527972
 H          9.1528046350        1.9973716056        3.9257323071
 H          9.2212661015        0.4473870295        3.7905537640
 O          8.9960922362        3.2904558745       -4.3844757794
 H          9.2490976948        3.5461930937       -3.4868766828
 H          8.1506134039        2.7987584899       -4.3159086352
 O         -5.7736595147       -0.7357371155        5.1136028544
 H         -5.0391072922       -0.1008568889        4.9581477009
 H         -5.9866969791       -1.0470767229        4.2050063488
 O         -8.3791506862        0.3925695881        5.1862547409
 H         -7.5099423834       -0.0312644913        5.2599814735
 H         -8.6626402604        0.2168539292        4.2703191766
 O         -6.2842271595       -1.9015868051        2.7585636426
 H         -5.6162740195       -2.3280380673        2.1989534626
 H         -6.8667910096       -2.6170197536        3.0427188804
 O         -4.0719441633        3.8286598087        6.7921701851
 H         -4.5613889780        4.5816229140        7.1207811696
 H         -4.6751247519        3.3429071491        6.1905994642
 O         -5.9768065567        2.3149938037        5.5770373722
 H         -6.1576313332        1.5391020401        6.1108704077
 H         -6.8519713380        2.7343924649        5.4045426054
 O         -8.6714529451        0.0092347903        2.4815829673
 H         -7.7425342045        0.2934041254        2.4482928818
 H         -8.6910624998       -0.9542679062        2.3299336845
 O         -7.6268205968        5.1280410247        0.9840844813
 H         -7.8827980883        5.2496738841        0.0609491091
 H         -8.3087779884        4.5529768118        1.3820930575
 O          2.0414930286       -0.1097942516        6.6538235168
 H          1.8739988003       -0.2468686517        5.6941869265
 H          1.3149148013        0.4856911050        6.9207144878
 O          5.1172835653       -4.0547315308        5.0068766658
 H          4.5162954076       -4.7909662949        5.1772416656
 H          4.9164227224       -3.3352251195        5.6291313090
 O         -5.2273110084        6.3818378085       -0.3076484261
 H         -6.0396454545        6.8874628986       -0.3199410630
 H         -4.9290017994        6.3938191473        0.6372090242
 O         -8.0382965292        0.6315082345       -2.7914501996
 H         -7.6938274810        0.2890647766       -3.6248812668
 H         -7.2542588574        1.0613665785       -2.3448814679
 O          2.1431906403       -3.3357140299        4.6160469387
 H          1.5834965339       -3.1500744613        5.3992765590
 H          2.4491925055       -4.2511034010        4.6836111774
 O        -10.3014334865       -2.9089066005       -0.4696198172
 H         -9.5657394450       -2.2834699865       -0.6050199929
 H        -10.0240007574       -3.7233076488       -0.8983067074
 O         -8.5064527991       -0.7862778141       -0.6169692114
 H         -8.3607728267       -0.4130630940       -1.5120134957
 H         -7.6033258812       -0.9711985712       -0.2825833992
 O         -6.1081583225       -5.8015100164       -2.8246940214
 H         -6.3373595241       -5.2751214483       -3.6353593953
 H         -5.4153920466       -6.3990467614       -3.1201784979
 O         -6.4833552355       -5.8137249769        1.3314637456
 H         -7.0356460439       -6.5163547268        0.9891438325
 H         -5.5815604835       -5.9862303272        0.9764081247
 O          6.7612857644        2.1609398673        6.0342000787
 H          6.8278692529        1.2674874467        5.6550355981
 H          5.9039294745        2.1880022721        6.4732918884
 O          6.4947752253        1.5967852127        2.6295449005
 H          5.6641298594        1.5365293091        3.1393352489
 H          7.0701062800        2.2221979196        3.1113974550
 O          7.3705420933        5.7486855233        1.0241793235
 H          6.6958869924        5.4448936299        1.6583266543
 H          8.0861310509        5.1013806971        1.0934869694
 O         -2.9816068903       -3.9159942524        6.5125156082
 H         -2.9564781470       -3.1563533032        7.1007425902
 H         -3.8682252951       -3.9162885950        6.1260050309
 O         -9.0263098348       -2.6844447502        1.9976831956
 H         -9.8395319579       -2.7615540465        1.4837853178
 H         -8.3141042154       -2.8638903169        1.3351514527
 O          3.4953707044        5.6590421356        4.2323442677
 H          3.0253135464        6.1277789994        4.9237372506
 H          3.0351825212        4.7976421724        4.1402174191
 O         -0.4016908747        6.0586715416       -4.9830883984
 H         -0.3734280740        5.7848094395       -5.9080552952
 H         -1.3387533949        6.0565757546       -4.7235769234
 O         -3.2716975763        2.8976113306       -2.7015329171
 H         -3.4863404779        2.0327220518       -3.1179868830
 H         -4.0092354368        3.4795336132       -2.9024793982
 O        -10.8429388991        1.3498530182        1.3942834815
 H        -10.1233279820        0.8320421222        1.8042829050
 H        -11.2561174153        0.7537856955        0.7524215428
 O          9.9812935382        0.2637078575       -1.6160674630
 H         10.4035145654        0.6947688473       -0.8649165929
 H         10.3439883165       -0.6513152268       -1.6472907270
 O          0.3866974026       -4.9974902079       -0.1891420118
 H         -0.4234469198       -5.2919729324        0.2666817427
 H          0.4914632168       -5.5417540425       -0.9907605493
 O          3.8030050321       -5.5522150253       -3.8895762591
 H          4.2814372751       -6.1809290141       -3.3256727074
 H          4.3701650963       -5.2440727793       -4.6353954897
 O          0.6553653036        5.6041603635        2.9215765985
 H          1.3673878907        6.0279393717        2.4057924253
 H          0.6294695869        4.6858293309        2.5851621067
 O         -3.7117137849        0.8984957295        4.7423773527
 H         -3.9565849820        1.8152104653        4.4773853153
 H         -2.9793028175        0.6513381471        4.1452554391
 O          5.6860081170        4.6968474967        2.9132017378
 H          5.1182796574        5.2025289160        3.5087292436
 H          5.0686104993        4.1311635042        2.3981251577
 O          2.5059993530       -2.3992487698       -4.1847606248
 H          3.4229325453       -2.1015681449       -4.2014500395
 H          2.4027149266       -3.0053581791       -3.4298496085
 O          2.8614711415        6.4131492495        1.6205412077
 H          3.2897194955        6.3902179049        2.4884192031
 H          3.3994210920        5.8191941816        1.0543056818
 O         -6.3398049326        4.8563939650        3.4855099919
 H         -7.0008602101        4.5447195009        4.1113360153
 H         -6.8120984140        5.0487052871        2.6647525835
 O          7.7096803527       -0.7243180102       -3.8889844733
 H          8.5899429830       -0.3200314834       -4.0935857134
 H          7.6177002850       -0.7571676494       -2.9133678520
 O         -3.3705675691        3.6604293626       -0.1491996496
 H         -4.2618557630        3.5060937604        0.2347787935
 H         -3.3278816749        3.1476099163       -0.9751595480
 O          9.2359307407        4.0117649968       -1.6367516137
 H          8.4763959525        4.6501924319       -1.6570186234
 H          9.5943318358        4.0759333083       -0.7457689515
 O         -8.3891500409        3.0970577541        4.9225554498
 H         -8.6207481648        2.1754716308        5.1544949958
 H         -8.5984084996        3.1573657827        3.9685515174
 O         -5.7575266816        4.3042943287       -1.9784023530
 H         -6.7265248284        4.4032790169       -1.8672873065
 H         -5.3865268179        4.9598949970       -1.3561514920
 O         -2.2611103430       -6.4618887335       -1.8403826628
 H         -2.1571400811       -5.5527961094       -1.4924687913
 H         -2.7749412443       -6.3446976558       -2.6652346432
 O         -4.0296146940       -3.2659666166       -4.8641860389
 H         -3.5609184218       -2.6503884813       -4.2538846506
 H         -3.5798367242       -3.1971925986       -5.7069997282
 O          6.7506267207        1.8176640638       -4.0525803672
 H          7.0225450298        0.9263682389       -4.3185947338
 H          6.9161370602        1.8462419262       -3.0825661367
 O          3.9777914872       -1.9307197903       -6.6639281742
 H          3.1625531654       -1.4056801965       -6.6352844844
 H          4.5138106071       -1.5475292630       -5.9491183679
 O         -6.6082432766       -0.4131695065       -4.9153791604
 H         -6.0788126391       -0.8187188553       -4.2009423662
 H         -6.0060821291       -0.3407998957       -5.6680802581
 O          1.2601382042        4.0234079069       -4.2985075324
 H          1.9092289776        4.3995779762       -3.6679846853
 H          0.6708991562        4.7561968064       -4.5471680179
 O         -8.9389844667        3.1781027134        2.2848645007
 H         -9.8539765651        2.8878092664        2.2127233682
 H         -8.4325258270        2.5376881677        1.7327137568
 O         -8.3688054229        4.8153075395       -1.7089533706
 H         -8.4919232777        4.6413421578       -2.6678169710
 H         -9.0553642184        4.2726185666       -1.2859709075
 O        -10.1208842126        3.0456477171       -0.6621648492
 H        -10.4026202390        2.6030493874       -1.4945526564
 H        -10.5765787888        2.5876606865        0.0657777933
 O          4.5381925527       -6.6839302815       -1.5456286042
 H          4.1744684181       -5.8749108757       -1.1166048841
 H          5.4895617085       -6.6039948221       -1.4003896988
 O          9.9110445320        0.6551668622       -4.3118128147
 H          9.7531601900        1.5899433993       -4.5304188545
 H         10.1893508437        0.6373983997       -3.3812169317
 O         -7.4378373457       -4.3437794668        3.5100767541
 H         -8.2607536210       -3.9642851318        3.1625413623
 H         -7.0973740639       -4.9413084681        2.8249676579
 O          6.0860236478       -5.3324921817        1.5391972221
 H          5.4199091125       -4.6316754675        1.6839097246
 H          6.3818730182       -5.2528978052        0.6139468924
 O         -3.6164824769       -5.8634238912       -4.0741724888
 H         -2.8528034796       -5.9368211756       -4.6693648191
 H         -3.9055197786       -4.9418706967       -4.2147948540
 O          6.7426770736       -5.1841732345       -1.0983104553
 H          6.1615137514       -4.4983167067       -1.4875551727
 H          7.6333160237       -4.9804928817       -1.4111341975
 O         -2.8772862463        5.6412019483       -3.9340833368
 H         -3.8021071627        5.6976738744       -4.2069544790
 H         -2.8550920376        5.7712536115       -2.9591279686
 O          9.2803085235        3.6968680842        1.2873411365
 H          9.1002654006        3.6984766916        2.2330453903
 H          9.6378778292        2.8115107305        1.0918008873
 O          7.1916537452       -3.6264882855        3.3123192455
 H          6.6361204925       -3.8855877739        4.0637017836
 H          7.0604063163       -4.3257871632        2.6418947836
 O         -0.2958318562       -0.1535536477        1.3043089318
 H         -0.7430173322        0.3862649301        0.6308511788
 H         -0.2194027438       -1.0397167322        0.9264333426
 O         -2.9817746645       -0.7161818714       -0.8667495653
 H         -2.4660027377        0.1006352896       -0.8414774570
 H         -3.5550716686       -0.6549504120       -0.0980312853
 O         -1.7021111419        1.4705390494       -0.0892025395
 H         -2.2390024444        1.7572326496        0.6534507190
 H         -1.1985661818        2.2255541608       -0.4436478775
