  375
       -636.60233715
 O          1.2916591177       -4.9338971694       -2.7016718479
 H          1.3372791260       -4.2666588128       -1.9890261659
 H          1.5626680585       -5.7665031807       -2.2625017732
 O         -1.8091295774       -1.0060477025       -1.3755832307
 H         -1.7314685582       -0.1618866346       -1.8577378949
 H         -0.9664077802       -1.1567243619       -0.9030543859
 O         -4.4212574620       -1.7403234911       -6.5322751073
 H         -5.0635757872       -1.3014930654       -5.9409997094
 H         -4.3605757501       -2.6399786838       -6.1835681035
 O         -1.4083152945        4.5464860661       -1.1050894042
 H         -0.7536081217        4.1012524669       -1.6886618232
 H         -1.9306774685        3.8689575600       -0.6460204772
 O         -2.5556414452        3.5237044009        1.0798898684
 H         -1.9344967914        3.1365592989        1.7113924583
 H         -3.3831559277        3.0165223162        1.1643301893
 O          0.3929322365       -1.4233751412        0.0843470423
 H          1.1058501077       -0.7638629181       -0.0004575068
 H         -0.0587494875       -1.2767491894        0.9382213033
 O          0.6599183554        0.7253397974       -2.1197513522
 H         -0.1995512301        0.9976921594       -2.4749477961
 H          1.3421106051        1.1206731095       -2.6955791699
 O          5.1540160633       -1.0617743275        0.3838067517
 H          5.1012279662       -0.1708436473        0.7838942603
 H          4.2642810800       -1.4332026809        0.5399657796
 O         -3.3049804157       -5.7269516176       -2.8124692885
 H         -2.6892773833       -5.3557273548       -2.1425927599
 H         -4.0679509778       -6.0402364735       -2.3244343520
 O         -2.4352644799        0.4800175877        0.7814011471
 H         -3.2664274226        0.9622107008        0.9232779100
 H         -2.5053681530        0.0187931672       -0.0744309085
 O         -3.4966063563        0.9758001371       -4.4397709773
 H         -4.3806660159        1.2737870104       -4.1511982851
 H         -3.4510038986        1.0885394619       -5.4018513414
 O         -7.6756591100        0.6464269394        0.9295259936
 H         -6.9431409503        0.0047136129        1.0454687782
 H         -7.6502008652        1.1747442653        1.7393879815
 O         -3.9956595405       -3.7467605289       -4.5946425089
 H         -3.7673657378       -2.9603421888       -4.0736401439
 H         -3.7141823737       -4.5087018388       -4.0597254940
 O          1.1195620285        1.7272635166        4.4624624950
 H          1.6926491162        2.4210680332        4.8214768204
 H          0.9693244993        1.1222023089        5.2133292450
 O          1.4820000415        0.3766606840        2.1509183628
 H          1.0106540028        0.8733928182        1.4475331943
 H          1.5331946742        0.9594007148        2.9236389021
 O         -3.7773117615        1.7829625092        6.5190566171
 H         -3.7309960318        2.0664293252        5.5788124107
 H         -2.9543928404        2.1210839831        6.8899669102
 O          2.5506827231        0.2864664414       -0.3169328631
 H          2.3464835939        1.2088453266       -0.5679976688
 H          3.0860135404       -0.0477681999       -1.0626541845
 O          1.5979243216        3.1953654217        1.8974057626
 H          0.6973237324        2.8838767582        1.7269190328
 H          1.5154550911        4.0431000870        2.3642335484
 O          3.7059753047       -0.0039240138        3.7965096412
 H          4.5542489482       -0.4708535925        3.8954884912
 H          3.8141662293        0.5418301681        2.9989588925
 O         -3.7126449819       -3.1683615263       -1.0902236992
 H         -3.4427864650       -2.7061761732       -0.2733728176
 H         -3.3650574853       -2.6342058084       -1.8138697238
 O          4.9199390620        5.3493494552        1.7797812672
 H          4.3078535282        6.0896135937        1.7127478368
 H          4.5669809662        4.7382128727        2.4529086944
 O         -3.7336957965       -0.1719382909        3.2824845040
 H         -2.8170837926       -0.2213282224        3.5954621868
 H         -4.2740361925       -0.6540682722        3.9423680632
 O          0.4546719558        3.5017569166       -2.6592978694
 H          0.0201261039        3.0320565598       -3.4032991379
 H          1.0738852118        4.1288418498       -3.0711152729
 O         -0.8859838764       -2.9076952027       -3.0006683982
 H         -1.4449569406       -2.1868205227       -2.6498898196
 H          0.0342798371       -2.5942966661       -2.8015586296
 O         -1.2649047177       -4.9062491625       -1.3342071389
 H         -1.0571250517       -4.1802881206       -1.9705579578
 H         -1.1416574036       -4.5277243734       -0.4432961404
 O          1.8975703738       -3.3095848540        6.1723605501
 H          1.1826574083       -3.0546914777        6.7711682367
 H          2.7453493519       -2.9966420121        6.5205674838
 O         -0.9845086745       -3.8660755876        1.0811707137
 H         -0.2175947724       -3.6518405171        1.6514015950
 H         -1.5989855508       -3.0974620210        1.1051334543
 O          7.5874120418       -0.6221092587       -3.8077767391
 H          7.6194931888       -1.0129812648       -2.9201476839
 H          7.1230739424       -1.2642920330       -4.3534347165
 O         -0.7371825285       -0.3992221172       -4.3539775908
 H         -1.1800536609       -0.7554028681       -5.1460858106
 H          0.2100141017       -0.5814405930       -4.4677248797
 O          1.4191028776       -1.8453816277       -2.4232688886
 H          1.7648289566       -1.6315016662       -3.3111114836
 H          1.1003172522       -0.9803849369       -2.1054942070
 O          0.5747691458        4.5250877703        5.6351837741
 H          0.9927028802        5.0386272460        4.9228715167
 H          1.3249448269        4.1127779140        6.0855727048
 O         -6.0517582727       -3.4776781800        1.2879241492
 H         -5.8126906734       -2.5275823536        1.2798633311
 H         -6.5602568083       -3.5728036240        0.4714898385
 O         -4.5456276551        0.1867442343       -1.2322744390
 H         -5.4935058076        0.0471677317       -1.4767245308
 H         -4.3695143461        1.1374261880       -1.3470633737
 O         -0.7725315582       -0.9813657860        2.4676299169
 H          0.0934269177       -0.5950492230        2.6894614533
 H         -0.9717752601       -1.6584767203        3.1330785435
 O          1.4859910403       -5.3751005243        4.3982903357
 H          1.6961774390       -4.7731317689        5.1311077236
 H          2.3266884280       -5.6855180051        4.0334055427
 O         -0.0485083469        1.6396717279        0.3264381038
 H          0.1936466301        1.3245552274       -0.5626212370
 H         -0.9463925039        1.2992181524        0.4986531529
 O          1.9474147792       -0.9441062758       -4.8012445233
 H          1.9100579941       -1.6696740230       -5.4581410354
 H          2.7927408974       -0.4873170799       -4.9265758559
 O          3.8999208651       -2.8755678446       -2.0352938921
 H          3.5949069259       -3.1729084327       -2.9124195462
 H          3.1159476160       -2.9491517819       -1.4625296489
 O         -6.6389972357        2.0811087787        3.0619392738
 H         -6.5382660148        1.6209866490        3.9227089158
 H         -6.4861177830        3.0179932471        3.2285520081
 O         -1.4298307153        7.6747806080       -0.7448005709
 H         -0.8890656558        8.0934740354       -0.0633684162
 H         -2.0335026365        7.0811445790       -0.2519698679
 O          1.0307097823       -3.3467688442        2.6885566670
 H          1.1597475496       -4.1468221475        3.2328526244
 H          0.9669540671       -2.5992090793        3.3145721219
 O         -1.0629990104        2.0299975819        2.8737515273
 H         -0.3181364525        1.9860624301        3.4964858874
 H         -1.2408610529        1.1283959834        2.5727942674
 O         -4.9784554662       -1.6655181699        5.1074205245
 H         -4.3224313873       -1.5460720626        5.8339756704
 H         -4.8476557059       -2.5412824714        4.7251988320
 O         -4.7043591117        1.8839223071        1.2083605712
 H         -5.3498908208        1.9011627362        1.9425486679
 H         -5.2285311790        1.9894123825        0.3954138881
 O          6.3148299059       -0.7213372736        4.0324164669
 H          6.3985200380        0.2469942717        4.0160645921
 H          6.9189806312       -1.0548534947        3.3651934417
 O          5.5860504814       -2.6137826831       -4.5763343816
 H          4.8072805604       -3.1527140515       -4.7682465616
 H          5.9871864634       -3.0409380594       -3.7967363727
 O         -2.5475125994        3.4820008472       -5.8018021019
 H         -2.8758826240        2.9607635723       -6.5390240642
 H         -1.8236327816        2.9434033024       -5.3964687284
 O         -6.4191313066       -3.1089893700       -1.4248089336
 H         -6.6100046235       -3.3941556334       -2.3455450072
 H         -5.4438647069       -3.1202749625       -1.3435635269
 O         -6.6626936875       -3.5219260973       -4.0455177123
 H         -6.7842821836       -2.5986922333       -4.3120972560
 H         -5.7554607004       -3.7470153992       -4.3293434125
 O          4.2769184489       -2.9190048214        3.6929545711
 H          5.1551138585       -2.9519256607        3.2698746860
 H          3.7274554615       -2.4232761640        3.0393449088
 O          6.1977994884       -3.0509008937        1.8060378713
 H          5.8209189374       -3.8046245150        1.3286061495
 H          5.8169389896       -2.2744255100        1.3346807439
 O          3.4856805666        0.4196634199        6.4064352151
 H          3.8882116609       -0.4331402396        6.6310783126
 H          3.5120990932        0.4184027610        5.4240934853
 O         -0.7009400455       -3.6040928669       -5.5563150373
 H         -0.7955757504       -3.2499639025       -4.6400815273
 H         -0.8123257822       -4.5639754872       -5.4265973901
 O          1.9453984725        5.4030720700        3.4718166941
 H          2.7797263858        5.0042720843        3.7376836594
 H          2.1705042866        6.1285130285        2.8423430057
 O         -3.7181419441       -1.3683394809       -3.2175411454
 H         -3.3069326713       -0.7080420015       -3.8012703038
 H         -3.9430278380       -0.8508144695       -2.4093550869
 O         -3.8716638690        2.9163154331       -1.4460479153
 H         -4.3489801278        3.4951061623       -0.8236926973
 H         -4.0513039702        3.2924566603       -2.3310965986
 O          6.2828045189        2.0005701234        3.5458076458
 H          6.9400147643        2.6000058093        3.8982545737
 H          6.5878525937        1.7652781419        2.6292934844
 O         -0.0625792558        7.8853250699        1.7138928969
 H         -0.1342489681        6.9161711376        1.5181641568
 H         -0.6471029119        8.0534608690        2.4522937152
 O          0.8236893110        0.3750891213        6.7990172753
 H          1.7966458121        0.3068068615        6.8470266059
 H          0.4496948300       -0.5238815214        6.8542487965
 O          4.2697152675        1.2613581528        1.4370593030
 H          4.5831664631        2.0376518722        0.9390830277
 H          3.5024814735        0.9238953455        0.9210695361
 O          3.7018825416       -5.4416919841        2.8188608158
 H          4.0785588254       -5.3614372845        1.9257897591
 H          3.8898078486       -4.5765383444        3.2342375387
 O         -4.3748753124       -5.4444676468        0.1790024990
 H         -5.0959882251       -4.9871853410        0.6376210423
 H         -3.9940502204       -4.7488649022       -0.3872584374
 O         -0.5234659548        2.1609781686       -4.7719690420
 H         -0.7256187039        1.2184147823       -4.5527855558
 H          0.2563094455        2.1106105705       -5.3636511726
 O         -0.8233545336       -5.9897471851       -4.2996483344
 H         -0.1847558777       -5.6076763969       -3.6757390412
 H         -1.6891471635       -5.9549213778       -3.8754728246
 O          2.1275555935        5.6093815664       -0.4888051736
 H          2.4143776662        4.7043842062       -0.7183299295
 H          1.5675886124        5.9439350868       -1.2226573891
 O         -2.6094897657       -5.6117395045        2.1353042945
 H         -1.9629023054       -4.9622416897        1.7514581265
 H         -3.2848330145       -5.7190946512        1.4239997671
 O         -4.3077208511        4.0926774760       -3.8296692334
 H         -3.7028531219        3.8470364128       -4.5599314396
 H         -3.9953583065        4.9541618270       -3.5157844241
 O          6.4595490835        1.0508215968       -1.3121985273
 H          7.1258349073        0.3662650392       -1.4344855269
 H          6.3504646523        1.4693301892       -2.1914499037
 O         -5.3111287813        4.6062062414        0.1854403648
 H         -5.3234772950        4.4361942122        1.1497665687
 H         -4.7270201260        5.3715753882        0.0914215619
 O          2.0223893657       -7.0380159939       -1.2103563446
 H          1.1695673672       -7.4931506384       -1.3205215304
 H          1.9481126310       -6.6134012781       -0.3270962504
 O          4.4652171545        3.5705321862       -2.5924749062
 H          5.1920669014        3.1519811023       -3.0683078418
 H          4.6209490577        3.4477840099       -1.6361495266
 O          1.6997949872       -2.9654631227       -6.5080853840
 H          1.5143154896       -2.2910858240       -7.1840206292
 H          0.8146693487       -3.2909096763       -6.2169919693
 O         -0.6478246048       -7.4854086001       -1.3975013800
 H         -1.0480938602       -7.8208927960       -2.2004594721
 H         -0.8379493006       -6.5167582555       -1.3873216188
 O         -1.2518846560       -5.3731705603        4.5511201194
 H         -0.3242565962       -5.6369236105        4.4775558668
 H         -1.7164038006       -5.7330658732        3.7841751119
 O          1.8427513846       -3.6289738366       -0.3635328716
 H          1.2517976021       -2.8558795432       -0.2352210710
 H          1.5210870259       -4.3460883783        0.2123477120
 O         -1.8745515593        1.4728152033       -2.3868677452
 H         -2.4438348663        2.0498407969       -1.8547761182
 H         -2.3604529047        1.3409471072       -3.2206178828
 O          1.7506488465        1.8104018277       -6.1076623215
 H          2.2207381745        1.6971595779       -5.2598322228
 H          1.7886386873        2.7642755679       -6.3084069890
 O         -3.2696802699        6.4455489954        3.5664963178
 H         -3.3994248878        6.7192953105        4.4734537879
 H         -2.5457906026        5.7679273232        3.5743018712
 O         -2.8475338466        6.1185797386       -2.6868819694
 H         -2.7521419682        6.9981953419       -2.3155933022
 H         -2.3750638889        5.5237534916       -2.0537909256
 O         -6.5291525321        2.2814918956       -0.8415436534
 H         -6.6055640332        3.2095073906       -0.5991561098
 H         -7.1307707111        1.7570326600       -0.2697809699
 O         -0.4597079635       -2.0584399917        6.8317894779
 H         -0.7815837959       -2.3084327524        5.9387433103
 H         -1.2628347859       -1.8744267756        7.3302267195
 O          6.1365370205        1.6884319378       -3.8886245474
 H          6.8732808273        1.0684626896       -4.0311037745
 H          5.3754933212        1.2180488825       -4.2749856214
 O         -3.0741143838       -0.8730726153        6.7646239828
 H         -2.4504266311       -0.6371811597        6.0404489483
 H         -3.4756206944       -0.0151214472        6.9812028281
 O         -3.2652628716        1.0036009672       -7.1716658799
 H         -4.0168638972        0.4580480433       -7.4205145518
 H         -2.4982928224        0.4203509998       -7.2273414390
 O          4.3572387251       -5.9254312191       -2.1569039480
 H          4.0316410723       -5.4949188599       -2.9552739626
 H          3.6515089997       -6.5296485689       -1.8782372557
 O          3.1246210244       -4.0451739358       -4.3705678806
 H          2.3670911083       -4.4157976166       -3.8528707855
 H          2.7244594704       -3.7534823797       -5.2026824091
 O         -5.9273716640        1.8573434174       -3.5535227855
 H         -6.2290331558        1.8723081290       -2.6293508653
 H         -5.6841019971        2.7691970845       -3.7606682176
 O         -6.2422178576        0.8294067315        5.4030331784
 H         -6.0260917326       -0.1075771041        5.3072753774
 H         -5.5490296565        1.2131498022        5.9537267659
 O          4.3939968846       -2.1735188819        6.2595213293
 H          5.3102297471       -2.3012125674        6.5034166686
 H          4.3504177055       -2.3908020530        5.2960702766
 O         -4.0980430808       -3.6084476504        3.2746991410
 H         -3.5879224395       -4.4107450849        3.0372809239
 H         -4.9174249079       -3.6711769511        2.7612641265
 O          1.2910912044       -1.2939029671        4.4295718327
 H          2.1058208362       -0.8405218302        4.1535986653
 H          1.5517622486       -1.9710729202        5.0775460211
 O          4.4313433386       -4.6206459859        0.3076842063
 H          4.5141243914       -5.1525077222       -0.5000835825
 H          3.6019047137       -4.1283299663        0.1956102424
 O          2.9597874783       -1.8403350409        1.6482527457
 H          2.2598912038       -2.5138157727        1.6995135498
 H          2.5082663747       -0.9851954897        1.7847331943
 O         -0.6244246828       -7.3888938815        1.4342976510
 H         -1.4197528231       -6.8953493111        1.7026365634
 H         -0.7474994221       -7.6243143163        0.5041917941
 O         -3.0842082555        6.1479970276        0.7832831414
 H         -2.8186792787        5.2105351334        0.9137736089
 H         -3.2230174721        6.4994789346        1.6685891726
 O         -5.4226839859       -0.8479158103        1.1601276922
 H         -4.8607088336       -0.5147340635        1.8772845605
 H         -4.9969026669       -0.5623501939        0.3285497728
 O         -1.4504815834        0.0942399818        4.8892144917
 H         -1.3564003866        0.9610856364        5.3270465748
 H         -0.5769076240       -0.3122249028        4.8413183889
 O         -1.5378812894       -2.7764169714        4.4104831286
 H         -2.4920546074       -2.7463958117        4.2888823077
 H         -1.3399591791       -3.7453803134        4.4685606011
 O         -3.5346343882        2.4351389320        3.9182326986
 H         -3.7692551095        1.5511341045        3.5675794396
 H         -2.6007333687        2.5608855747        3.6661860553
 O          6.3253241807       -3.8939386174       -2.2361595036
 H          5.4296557536       -3.5889798433       -1.9614861721
 H          6.2731125331       -4.8524622245       -2.2285961860
 O          1.4343989090        4.4968128762       -6.0520466055
 H          1.9714030461        4.7322808205       -5.2791114494
 H          0.5630008750        4.8534057256       -5.8502638099
 O          0.8856526167       -0.5632501139       -7.5340379832
 H         -0.0507650245       -0.6637842537       -7.3266558711
 H          1.1914156794        0.2394030319       -7.0853295538
 O          2.6241423963        7.1740442786        1.6247485295
 H          2.5349427444        6.6884908659        0.7801011735
 H          1.8447803113        7.7500989923        1.6585314825
 O          1.4791493303       -5.8257675802        1.1195877089
 H          0.7053021539       -6.3877306456        1.3584377276
 H          2.1180072329       -5.8600817725        1.8440584231
 O          2.4935411497        5.0807850850       -3.6072194103
 H          3.2880229280        4.6738948970       -3.2193495723
 H          2.3814731170        5.9605585710       -3.2393446007
 O         -0.0524299900        5.3204717809        1.0633632066
 H         -0.6757326391        5.0976897540        0.3358492298
 H          0.8165578525        5.3595924450        0.6125989582
 O         -1.0471360610        2.3449479156        6.4152502821
 H         -0.3678318049        1.8157550768        6.8578764725
 H         -0.6150811570        3.1595051494        6.1219719196
 O         -1.7750048272       -1.3744289928       -6.6280815730
 H         -1.4208316339       -2.2644549472       -6.4407992154
 H         -2.7496843454       -1.4998821586       -6.6112268268
 O         -6.0388693244       -0.8412189606       -4.5512194200
 H         -6.3766707221        0.0024927548       -4.2305623086
 H         -5.3105765808       -1.0759785559       -3.9412306641
 O         -1.3157379566        4.6963492634        3.4567882821
 H         -0.7150646995        4.5672921723        4.1965052138
 H         -0.7869079895        4.8619684007        2.6586649981
 O          2.9608311006        3.1364616297        5.9354736889
 H          3.2648694075        2.3214107706        6.3560986845
 H          3.5016589709        3.2540482063        5.1335135384
 O          4.2224192293       -0.2685706470       -2.3105904087
 H          5.0043344864        0.0541386920       -1.8369477637
 H          4.2023554428       -1.2462949977       -2.2521106177
 O          7.3360617871        1.2742838696        1.2777142944
 H          7.7371257054        0.3929909625        1.3962056307
 H          6.9005598487        1.2526486618        0.4111985289
 O          0.5113373550        6.6060918255       -2.3585375855
 H         -0.2109619668        7.0010284631       -1.8318538657
 H          0.0914499221        6.1995738413       -3.1280324113
 O          3.9608943013        3.3673412757        3.4149469378
 H          4.7455378466        2.7804199341        3.4003620820
 H          3.3059464110        2.9690931653        2.8147590933
 O         -5.0733273697        4.4089211814        2.9019905242
 H         -4.6102426649        5.2328311047        3.1120789176
 H         -4.4853016657        3.6994098701        3.2384609230
 O          7.3136520118       -1.6271037977       -1.1925915783
 H          7.2019844666       -2.5396023873       -1.5058854135
 H          6.4914178407       -1.4408295953       -0.6959604242
 O          8.2682452247       -1.3027363589        1.4020653255
 H          8.2965448334       -1.3960431324        0.4374427729
 H          7.7583484319       -2.0753605823        1.6945429248
 O          5.2330224279        3.3920133063        0.0234749018
 H          5.0921732397        4.1987193205        0.5694625809
 H          6.1801269985        3.2507715233       -0.0203702797
 O          2.7584449301        1.6417862353       -3.5472145529
 H          3.1973203385        2.4283073845       -3.1798328578
 H          3.3023458877        0.8873862411       -3.2625947409
 O         -1.0024467420        5.5203094123       -4.6079774724
 H         -1.4764172238        4.9063995919       -5.1830799572
 H         -1.6941522478        5.8442635290       -4.0013538943
 O          4.5414665448       -0.1606936622       -5.2043831366
 H          4.9383636320       -1.0036761925       -4.9066554364
 H          4.6574272530       -0.1096012547       -6.1533284966
 O          2.2798019001        2.9348072256       -0.7283262294
 H          1.9639522820        3.0127220897        0.1919423274
 H          1.5114391996        2.9968654603       -1.3266221473
 O         -7.0183020323       -0.5302129033       -1.7235549205
 H         -7.6233150502       -0.2580390571       -1.0305921135
 H         -6.8835116576       -1.5005664087       -1.6099558980
 O         -2.9271151698       -2.1448296558        1.2663777690
 H         -3.3981187569       -2.4574372417        2.0554761593
 H         -2.6645850868       -1.2145249377        1.4002544962
