  144
       -244.34863109
 O         -2.4100147059       -3.1438794395        3.2391272318
 H         -3.2617650892       -2.7409440111        2.9999930327
 H         -2.1917627272       -3.6977606477        2.4648533779
 O          3.9024108669        3.5811859209        2.5198205005
 H          4.6947696416        3.0558116890        2.2865853381
 H          3.6202432506        3.9941298550        1.6914961944
 O          2.2944082257        0.2441311762        1.3435715953
 H          2.1526524099        0.8057701384        2.1354710193
 H          2.6782930311        0.8514924153        0.6776620943
 O         -2.2315580899       -4.3647097608        0.8315749882
 H         -3.1621695215       -4.5071136075        0.6244222091
 H         -1.9293365114       -3.7088246419        0.1660633539
 O         -2.1199120065        4.8064992542       -0.0198261797
 H         -2.1409785040        4.5970289500        0.9277913962
 H         -3.0319188321        4.5976684589       -0.3354242485
 O          5.9200578208        0.9330528106       -1.0816072758
 H          5.6461871945        0.7224350871       -1.9937138638
 H          6.0729289997        0.0712669904       -0.6544367115
 O         -3.7771694536       -2.3585489319       -2.3831509580
 H         -4.4025437836       -1.6336110500       -2.1826690909
 H         -3.3857648244       -2.1042116029       -3.2476575275
 O          6.0873407962       -1.5432807117        0.1276867136
 H          6.7698565387       -2.1914545562       -0.0403398812
 H          5.2288916460       -1.9347148408       -0.1923499257
 O          3.8032892094        0.0362882726        4.7395675618
 H          4.5045165307        0.2648701673        5.3493113127
 H          4.2352343197       -0.2117680834        3.8954483642
 O          1.5299710396        0.9837885575       -4.3271613878
 H          1.4857898344        1.3902466766       -3.4344801092
 H          0.6276187819        1.0047505184       -4.6573301991
 O          5.8987762757        1.9396578646        1.7036644612
 H          6.1316947674        1.8558831248        0.7735694273
 H          5.5298953922        1.0743917517        1.9662013978
 O          0.0416231817       -2.5484625002       -4.2432255028
 H          0.1145880797       -3.3782454640       -3.7512142962
 H          0.9163492991       -2.3734560561       -4.6214577855
 O         -1.1387580469        3.8290536740       -2.4490665206
 H         -1.6289709588        4.3300191887       -3.1021140960
 H         -1.4663260266        4.1431826910       -1.5856578774
 O         -0.4020294566        1.5110870583        2.9208427752
 H          0.5060752256        1.7288002458        3.2119031774
 H         -0.5806496272        0.6116456845        3.2445232632
 O          2.4743928401       -2.8789626279        1.8488584606
 H          1.7250965658       -2.3112909586        1.5570529297
 H          2.1548612488       -3.7798703837        1.7192478675
 O         -0.7127249504       -1.1489084659        3.4596702157
 H         -1.2946606186       -1.9502588900        3.4704369303
 H          0.1164346800       -1.4041440019        3.9230086594
 O          1.0775144761        2.1880984879       -1.9667558686
 H          0.5021364887        2.9421804332       -2.1431242054
 H          0.6648075198        1.7023600430       -1.2375238575
 O          0.4717559445       -4.4680100687       -2.1771785900
 H          1.3907431802       -4.2243069378       -2.4467051344
 H          0.5749769092       -4.7478224289       -1.2518425763
 O         -0.0388407396       -0.7239596287       -2.2632114644
 H          0.0406181881       -1.3262453532       -3.0344843598
 H         -0.4611527000       -1.2750309685       -1.5777944951
 O          2.5637049565       -0.3780295686       -1.7189859960
 H          2.7009765397        0.5006626588       -1.3202015874
 H          1.6058600735       -0.4617649987       -1.9003809360
 O         -4.4411806015        3.8377978557       -0.8391673408
 H         -4.8979962080        3.3390771282       -0.1417658397
 H         -4.2947528223        3.2007146205       -1.5614069273
 O          0.5293835109        3.9932117772        0.5691389317
 H          0.3303297617        3.0540067029        0.4294937112
 H         -0.2491577802        4.4862422728        0.2855472084
 O         -4.0061368490        1.8507193896       -2.6704781227
 H         -4.4916734457        1.0599472530       -2.3861509380
 H         -3.1994961672        1.5472446867       -3.1102982785
 O         -5.4707110206       -0.3439600874       -1.8172120839
 H         -6.2740392130       -0.3096642002       -2.3372071681
 H         -5.7636045720       -0.3103306221       -0.8590052652
 O          1.7189964061       -1.8257808185        4.3291747793
 H          2.1351271940       -2.2582466051        3.5645356975
 H          2.3551013466       -1.1648098970        4.6324243590
 O          0.2954008078       -1.5159533841        0.9951940406
 H         -0.1204622770       -1.3747900968        1.8746155987
 H          0.8689003994       -0.7373159576        0.8624845415
 O         -6.2575482469       -0.2305126376        0.6541157187
 H         -5.6971780207       -0.7948592662        1.2214376897
 H         -6.0840875558        0.6938369526        0.9139768790
 O         -1.4075040336        1.1823316649       -3.5932553898
 H         -1.2116651129        2.0788425893       -3.2835044295
 H         -0.8803410413        0.5757253307       -3.0281075230
 O         -1.3763180626       -2.7934587699       -1.1867722489
 H         -0.7817999006       -3.4230558364       -1.6480549619
 H         -2.2049460262       -2.7398085095       -1.6954292058
 O          3.7228576745       -2.4182075924       -0.5061061297
 H          3.2611025374       -1.6238435184       -0.8633218779
 H          3.3194597105       -2.6089829357        0.3663425427
 O          4.7152559063       -0.4617507305        2.2662184836
 H          5.2504629818       -0.9876119159        1.6536436022
 H          3.8236397590       -0.3704471327        1.8579566450
 O          3.4740941959        1.7891738502       -0.4389955397
 H          4.4195222253        1.5893742976       -0.6077873474
 H          3.3749218095        2.7527002703       -0.3978597118
 O          2.8804675733       -3.6039126950       -2.8341412502
 H          3.2813833988       -3.2934367805       -2.0043011924
 H          2.8137965331       -2.8261280250       -3.4112335740
 O         -2.4735979691       -1.3564777407       -4.4995315466
 H         -2.2359097654       -0.4299638230       -4.3703847904
 H         -1.6381153994       -1.8367618116       -4.5971227910
 O         -4.7701840515       -3.8199615247       -0.2314037468
 H         -4.4047902420       -3.3698140316       -1.0133412037
 H         -5.6000657889       -4.2104107950       -0.5054527831
 O          2.5462286914       -1.4839987073       -4.6219678413
 H          3.4666388898       -1.3404424888       -4.8533656640
 H          2.1762575726       -0.5841790081       -4.4689524276
 O          3.0585311450        4.4557655057       -0.0209477153
 H          3.1369085602        5.2583952511       -0.5349912234
 H          2.1031019708        4.3390574454        0.1916360897
 O         -5.7064195465        2.3948230435        1.1976343989
 H         -6.5145009965        2.8719136537        1.3901444852
 H         -5.1446452339        2.4695578413        2.0216656770
 O         -4.2411585761        2.5951845836        3.3377559307
 H         -3.9649452490        1.7048831797        3.6172039391
 H         -3.4284413614        3.0763565687        3.1089448200
 O         -3.4127457854        0.0101804010        3.8117367223
 H         -2.5342320790       -0.3760037053        3.9091173008
 H         -3.9515923595       -0.6442327601        3.3544213435
 O         -4.4675055061       -1.9230380070        1.8573240015
 H         -4.7271313358       -2.6847757907        1.3199334769
 H         -3.7401221664       -1.4824064509        1.3082497862
 O         -1.8420950731        3.7879261670        2.6164433280
 H         -1.3121558292        2.9694489661        2.7071173785
 H         -1.4195895091        4.4372404858        3.1801267312
 O          4.5742958795        0.2723136937       -3.4115534594
 H          3.8470854751       -0.0898945611       -2.8631825708
 H          4.1951712565        1.0324812452       -3.8572883952
 O          0.5295043100       -4.3872976559        0.5893849924
 H         -0.2908771485       -4.8016216200        0.8781678681
 H          0.3200141899       -3.4420348182        0.5175106588
 O          2.1733986756        1.8527796040        3.4693988952
 H          2.6910711324        1.3161076116        4.0913479959
 H          2.7793266545        2.5740625727        3.1534688388
 O         -0.3494431324        1.3551291472        0.2522337717
 H         -1.1654520973        0.8929170211        0.0290868975
 H         -0.3095311533        1.3340120326        1.2320319162
 O         -3.0665083220        0.3663349539        0.7237052188
 H         -3.0355052311        0.7723769152        1.5971961242
 H         -3.6165664635        0.9298827152        0.1721912557
 O          0.6886560299        4.5004179682        3.4218567767
 H          0.7895712817        4.3456152038        2.4709018543
 H          1.4268828867        4.0618866772        3.8481505060
