  114
       -193.43666625
 O         -4.9173512195        1.7003868402       -2.7792873408
 H         -5.6352890315        2.0756491053       -3.2892689325
 H         -5.1763262578        0.7532486756       -2.6093001736
 O          2.2766994090        1.9466165736       -1.2680821236
 H          2.0479932656        1.5409022438       -2.1233026856
 H          1.8527877298        2.8239341002       -1.2549620732
 O         -0.1824184707       -0.2470322746       -5.0426819909
 H         -1.1051795630        0.0474037186       -5.0403011593
 H         -0.1826528314       -1.0654740394       -4.5142773781
 O          4.7766692184        1.7009839249       -0.4473399787
 H          5.2612524495        2.3453261874       -0.9644785339
 H          3.8378419088        1.7463255642       -0.7533146917
 O         -5.5201417939       -0.8061003695       -2.2903896157
 H         -5.7100488906       -0.7837995614       -1.3338188401
 H         -4.7316126807       -1.3590241885       -2.4052265727
 O          3.3644600966       -3.8609506156       -2.6594256440
 H          3.9789833624       -3.8120943961       -1.9081446117
 H          3.3798210720       -2.9754962708       -3.0525269267
 O         -2.9223312764        0.2640055751       -4.3584739457
 H         -3.0893263626       -0.5807839866       -3.9200408044
 H         -3.5313691245        0.8915184856       -3.9445279465
 O         -0.3374224800       -1.9676800870       -2.9510295607
 H         -0.1791722969       -1.1580770588       -2.4329525690
 H          0.1245338526       -2.6771223536       -2.4555085619
 O         -0.6158266890       -4.4743100094        0.6141206340
 H         -0.1759172900       -4.0967331204        1.3869113004
 H         -0.0051384583       -4.3175085003       -0.1284648107
 O          1.0951881174       -3.5132187542       -1.2966639687
 H          1.4539996574       -2.7268389652       -0.8454910711
 H          1.8468182135       -3.8548608730       -1.8277957091
 O          3.0334607768       -0.5155561536        1.9202196922
 H          2.3447783449       -0.5160258510        2.6077399987
 H          3.6110246553        0.2420258415        2.0981049513
 O          0.9646157240        1.4385209849        1.1106372723
 H          0.2860013316        2.1473558881        1.1036558202
 H          1.4407123192        1.5151344823        0.2634660204
 O          3.4296387856       -3.2123802459        1.7276377642
 H          3.8745174700       -3.4270404551        0.8942037863
 H          3.5391732725       -2.2540489736        1.8317941516
 O         -1.2903243296        0.3642681430        4.9032446917
 H         -1.6733735530        0.0896098581        5.7360195540
 H         -1.4717134797        1.3387910532        4.8168220212
 O          5.0567929403       -3.2996198082       -0.5292398286
 H          5.8876748651       -3.7735320662       -0.4997856191
 H          5.2725909803       -2.3719201402       -0.7920696292
 O          0.4561258074        4.2012617200        3.7056002619
 H          1.1442426791        3.4971871555        3.6495637910
 H          0.8316976893        4.9214357561        4.2114707205
 O         -1.8726294388        2.8991947667        4.5113651327
 H         -2.4335896196        2.9017095539        3.7183428538
 H         -1.0785887541        3.4094585154        4.2835224294
 O          0.8701723380       -2.8281007241        2.3874556941
 H          1.0044662125       -2.3946922703        3.2349743105
 H          1.7664177486       -3.0966193126        2.0818370898
 O         -5.0239569594        2.1446914937        0.1100273102
 H         -5.4653415810        1.2964347916        0.2900034244
 H         -4.9417209000        2.1841180512       -0.8541664618
 O          3.3482831849       -1.0618696304       -2.9229401890
 H          2.8965262641       -1.1343966679       -2.0563653593
 H          2.8567669318       -0.3739701552       -3.3989566190
 O         -6.0089843661       -0.4313005861        0.3753232505
 H         -5.3871045495       -1.0037889795        0.9186442154
 H         -6.8919571183       -0.6411744792        0.6783853928
 O          0.7905065414        4.2132142968       -0.9564360711
 H          0.2484262502        4.7297013964       -1.5527617051
 H          0.2427193199        4.0411580842       -0.1679816790
 O          2.1989608064        2.2258455482        3.3270359090
 H          1.7733765420        1.9000611345        2.4959669076
 H          3.1418517705        2.2659245723        3.1238583415
 O          5.5778255893       -0.8411115621       -1.4204313244
 H          4.9060910904       -0.9018140828       -2.1290214631
 H          5.3418030993       -0.0475356188       -0.9201200289
 O         -0.6749271046        3.5538867404        1.2716780950
 H         -1.5851637801        3.2368993184        1.4978605313
 H         -0.3261510416        3.9587522147        2.0804434372
 O         -2.4325002199       -2.6336709486        0.0751573272
 H         -1.8873488790       -3.4391396555        0.2489661229
 H         -1.8430262426       -1.8935303870        0.2805917759
 O         -3.0056445773       -1.9803954965       -2.4787450082
 H         -2.0926261281       -2.0823154790       -2.8143234459
 H         -2.9456466982       -2.3424234233       -1.5721471288
 O         -4.3749747686       -1.8677079437        1.7748894653
 H         -3.7814564589       -2.3209861289        1.1413508739
 H         -3.8039963030       -1.1963659686        2.1919371967
 O         -2.5199196647       -0.0254163960        2.5141551506
 H         -1.7980767056       -0.3448729554        1.9240409339
 H         -2.1395322383       -0.0155820251        3.4094613576
 O          2.0872574649       -1.0829829762       -0.5514656541
 H          2.4459951286       -0.8527635693        0.3253047870
 H          1.3777345040       -0.4574085217       -0.7538378951
 O          4.7112108279        1.6869221802        2.2331093985
 H          5.5841701839        1.4371377889        2.5368733591
 H          4.7628583699        1.7579045454        1.2551318062
 O          1.8203209598        1.0421310811       -3.8834291953
 H          2.2177497814        1.5160759797       -4.6142515167
 H          1.0289794855        0.5820712161       -4.2698962440
 O          1.2507886951       -0.3017436854        4.0124741331
 H          1.6120199055        0.5937500686        4.0973359680
 H          0.3232581783       -0.2128796929        4.2830374631
 O         -0.4473870087       -0.8840201513        1.0915893335
 H          0.1223318859       -0.0958740417        1.1778761903
 H          0.0338901018       -1.6229040044        1.5230660321
 O         -3.0141106048        2.5424441474        1.9860484629
 H         -3.7647699953        2.5831108940        1.3667367481
 H         -2.8643864059        1.5786371893        2.1367199514
 O         -0.1644507464        0.2978794751       -1.3902904895
 H         -0.6551449811        1.0591123206       -1.7567743821
 H         -0.6993370548       -0.0579648725       -0.6713903245
 O         -1.7892683682        2.1641822604       -2.4486779490
 H         -1.9264146762        1.6697588102       -3.2694829784
 H         -2.6640554688        2.2947750145       -2.0709204592
 O          4.1336062851        4.4351063087        1.6202841536
 H          4.3980356165        3.5853773460        1.9908998789
 H          3.3238292440        4.2896551324        1.1264940621
