  84
       -142.50909723
 O         -2.6338980159       -3.0258179993       -0.1625590466
 H         -1.9853331311       -2.8121921114       -0.8875149512
 H         -2.9893453409       -3.8916641643       -0.3661265647
 O          2.7921965036        0.5270276002       -1.6113980905
 H          3.2400234680        0.5630876205       -0.7479934723
 H          2.7343261483        1.4677110921       -1.8934112025
 O          0.8788103255       -4.3443545851       -1.9984449768
 H          1.6853613558       -3.9033242831       -2.2851154914
 H          0.9417081109       -4.4491295424       -1.0332007651
 O          0.9239103149        2.7518079189        3.7173677386
 H         -0.0117189699        2.4607362170        3.5731057032
 H          0.9348611969        3.1946535400        4.5663792943
 O          1.5897639440        4.2186632177        1.4879103632
 H          0.9776197181        3.9053422574        0.7992493790
 H          1.3868588869        3.7011918989        2.2870356835
 O          2.6549975190       -1.9534791858       -2.7790122983
 H          1.7753716446       -1.7738083078       -3.1329755445
 H          2.9865847070       -1.0667964220       -2.5505824394
 O         -2.0351159653       -0.7056764248        3.3453825416
 H         -2.9003280974       -0.6964831506        2.9080849041
 H         -1.5740355832       -1.4875446909        3.0115622430
 O         -3.2054215157        2.0421909535        0.9658400894
 H         -3.8065513409        2.2525553784        0.2394727057
 H         -2.4408554046        1.6143362265        0.5059903408
 O         -4.4507708677       -0.0042973989        2.0922779471
 H         -3.9782667906        0.7941517959        1.7402415096
 H         -5.0507267070        0.3079464823        2.7695327835
 O         -4.4779248931        1.5327700745       -1.4880718800
 H         -4.4019238492        0.6085020728       -1.1626666089
 H         -5.3181161512        1.5822388462       -1.9441453551
 O          3.9231209382        3.8047117222        0.3694154925
 H          3.0656998779        3.9811873820        0.8447363080
 H          4.4948148827        4.5482103110        0.5584320146
 O         -1.0701995734       -2.5341681044       -2.1795461838
 H         -0.5506887885       -1.7068661494       -2.2437852776
 H         -0.4131651058       -3.2640134884       -2.2142512605
 O         -2.1761144436        0.9843866881       -2.9819659916
 H         -2.5520119531        0.1119556181       -3.2345491434
 H         -2.9417758226        1.4893098158       -2.6717431078
 O          1.1841226852       -4.2990785210        0.7826274822
 H          1.6970116836       -4.9410700160        1.2742712611
 H          1.8006345895       -3.5588749254        0.5631692422
 O         -0.9468374211       -2.9284792175        1.9992045505
 H         -0.2201403805       -3.4925377224        1.6913982043
 H         -1.6363986593       -2.9986797776        1.3163361054
 O          0.3830774004       -0.3267094683       -2.6201387922
 H          1.1216432752        0.0792745127       -2.1291825143
 H         -0.1796752286        0.3792180570       -2.9532162564
 O         -1.5698103152        1.9611118230        3.3442824008
 H         -1.6749722334        0.9921398379        3.4392213056
 H         -2.1074742000        2.2110987364        2.5835395300
 O          4.1728812405        1.1010345420        0.7396256260
 H          3.7617578663        1.0003877648        1.6201027456
 H          4.2461005635        2.0592227386        0.5918514938
 O         -4.4162813826       -0.9874249474       -0.4750076792
 H         -4.6339663801       -0.7168491794        0.4316663969
 H         -3.7429049247       -1.6826665618       -0.3430047110
 O          2.7675232789       -2.3966597684       -0.1027280979
 H          3.6717312653       -2.1184058093        0.1416878065
 H          2.7311391546       -2.3177773468       -1.0762108640
 O          5.2359025800       -1.3517506856        0.2557410522
 H          4.9787495585       -0.4447035750        0.5061386374
 H          5.7131666533       -1.2755270544       -0.5720338003
 O         -1.2596302814        1.0250408684       -0.4693094872
 H         -1.5484414233        0.8663769733       -1.3921779052
 H         -0.6766801901        0.2650994008       -0.1763378545
 O          2.4773078071        3.1466237420       -1.9328369720
 H          3.0981383482        3.4626943213       -1.2575431315
 H          1.5948950467        3.2519642546       -1.5378951112
 O          0.0424872653        3.2950012308       -0.6014465367
 H         -0.4088008852        2.4132263361       -0.5151259033
 H         -0.6125715912        3.8978270918       -0.9537533683
 O         -3.3648361088       -1.4110206281       -3.2119207290
 H         -2.5998382943       -1.9704581205       -2.9981699825
 H         -3.9137948532       -1.3874877059       -2.4199272920
 O          0.5168553341       -0.7918847672        0.6672814392
 H          1.3143742692       -1.2493088761        0.3504928457
 H          0.0603882210       -1.4128812156        1.2572304842
 O          2.3278509728        0.6350907069        2.5563628046
 H          1.9112388890        1.3914487773        2.9936115856
 H          1.6767086856        0.2919421115        1.9280664593
 O         -2.4338303599        3.8597738525       -1.8913056335
 H         -3.1969597971        3.3777876817       -1.5595755571
 H         -2.1264798163        3.3947436776       -2.6737342758
