  146
       -243.92531896
 H          1.3089766994        0.1180531409       -1.4242110763
 C          2.0892239343        0.0616064178       -0.6647919521
 H          3.0594532940        0.0643822675       -1.1576489394
 C          1.9456056711       -1.2226386949        0.1522391333
 H          2.7727758417       -1.2927050087        0.8641675225
 H          2.0060825517       -2.0715573786       -0.5279184148
 N          0.6477120784       -1.2687014922        0.8247205410
 H          0.5451176398       -0.4669874890        1.4359732414
 H          0.5907799830       -2.1011866722        1.3986756836
 O          2.0497504221        1.2247506030        0.1468719113
 H          1.1147121166        1.3786611760        0.4325859011
 O          3.7190038161       -0.2422578789       -3.6279790258
 H          2.8404776014       -0.1084362609       -4.0037182611
 H          3.9921410952        0.6545765503       -3.3384260329
 O          4.2572984243       -2.1751641711       -1.8414065361
 H          4.1393139800       -1.5094814428       -2.5529864582
 H          4.6852348865       -1.6950638898       -1.1166155631
 O         -3.1801687219       -3.0966852522        4.2328262117
 H         -2.2404662313       -2.8561301703        4.1870284655
 H         -3.3114552906       -3.7075951233        3.4844079584
 O          2.0599824803       -3.4569407283       -3.2887370028
 H          2.8844290334       -3.0916203983       -2.9432707692
 H          1.7174364911       -4.0613389855       -2.6072473947
 O         -3.4906457405       -2.1755643046       -2.2209560659
 H         -3.2270030854       -2.2593346730       -3.1481525072
 H         -2.6773003630       -1.9086569725       -1.7556249798
 O          1.9147262960        0.1905191436        3.9388794679
 H          2.0597642520       -0.7655007349        3.8367860678
 H          0.9464591668        0.3152773711        3.8888233974
 O         -4.1677953536        0.4769832014       -2.1224995632
 H         -3.5728578980        0.5900687700       -1.3514014118
 H         -4.2953233351       -0.4827955910       -2.1891288262
 O         -0.9463454672        1.1987636382       -1.9865833432
 H         -1.1130374242        0.3521057400       -1.5382832220
 H         -1.3710855539        1.1130317873       -2.8652487784
 O         -2.1256412116       -1.9304548139       -4.6298004049
 H         -2.0153512011       -2.4304393936       -5.4375650185
 H         -1.2381031609       -1.8862764443       -4.1956630130
 O         -1.1167857586       -1.4352539921       -1.0983595600
 H         -0.4629798216       -1.3074674709       -0.3449866623
 H         -0.5825746237       -1.5649310608       -1.9082459419
 O          2.2570767134       -2.4910338255        3.2897830693
 H          1.7425833078       -3.2343287560        2.9269738456
 H          3.1464115204       -2.6058810779        2.9254636741
 O         -1.0622772816       -3.9548707061        0.0873169555
 H         -1.2378359926       -3.0782652453       -0.3002625155
 H         -0.3821199546       -4.3625503004       -0.4768149089
 O         -0.9165548302        4.2541881454        0.7626913389
 H         -0.1951512969        4.6625852714        0.2332167542
 H         -1.6253087853        4.0780411797        0.1065766499
 O         -0.4080396253        2.6542333489       -4.6835947107
 H         -1.2543394399        2.1882920312       -4.7253628673
 H         -0.5975781722        3.4797701015       -4.1877393931
 O         -3.1745666816       -4.5692956644        1.8839489445
 H         -2.4314395122       -4.4606579529        1.2724086885
 H         -3.9444364877       -4.2488723430        1.3960684655
 O          1.1484782320       -4.9710414819       -1.1654285368
 H          1.1686066506       -5.9235884197       -1.2613378280
 H          1.9810568038       -4.7313950065       -0.6837263317
 O          2.7995986544        3.7760435895        0.8818525789
 H          2.6087914777        2.9832128209        0.3571995364
 H          2.3701310757        3.6202874057        1.7386496479
 O         -2.4460688244        3.4060855164       -1.2272005079
 H         -2.0285621687        2.5439754095       -1.4111525029
 H         -3.4055713700        3.2484388292       -1.1105543290
 O         -2.6945587538        0.6918036428        0.1462504225
 H         -2.5283274155       -0.2226198043        0.4462995132
 H         -3.4299736520        1.0077790676        0.7184974783
 O         -5.0247117503        2.7591185386       -0.7701588672
 H         -5.1415172035        2.4536002754        0.1349752616
 H         -5.0892748603        1.9753475061       -1.3360300758
 O         -0.7183550167       -2.0933197392        3.5427283543
 H         -0.7583546237       -1.1136303749        3.5487528998
 H          0.1681213918       -2.3351366651        3.8202069425
 O         -0.6918215404        0.5675761910        3.3967934300
 H         -0.5635732872        1.0177180692        2.5271115120
 H         -1.4551799101        1.0383996607        3.7874012922
 O          5.3436323458        3.0200471079        1.4862759943
 H          4.9833571657        2.2445447663        1.9493740375
 H          4.5537722963        3.5336659796        1.2304255361
 O         -0.3986481480        1.7020280374        1.0328331286
 H         -1.1984567748        1.3505247356        0.5813645245
 H         -0.5132163196        2.6869214175        1.0034330240
 O         -6.2211398271       -0.6360685761        0.2662641213
 H         -5.6765605021       -1.4581389450        0.2434752368
 H         -7.1113194757       -0.9041164758        0.4896362294
 O         -2.5490749187       -1.5752011997        1.5153276903
 H         -3.0636875241       -1.1820055348        2.2517903648
 H         -1.8282065908       -2.0534597880        1.9450595913
 O          1.0528069203        5.0083105624       -0.8690196375
 H          1.8083711442        4.9878398452       -0.2655364743
 H          1.1454751430        4.1854753851       -1.3975885486
 O         -3.9186222527       -0.6326321731        3.6405116369
 H         -3.8213892790       -1.5492927415        4.0013617390
 H         -3.5088462434       -0.0307140032        4.2686625429
 O         -0.9616919496        4.7459576189       -3.0773150195
 H         -1.6137817075        4.3645810339       -2.4592609935
 H         -0.3175844887        5.2008610098       -2.5267603229
 O          6.0071016247        1.7080258085       -0.6909223943
 H          5.8174563417        2.2522438626        0.1214367419
 H          6.8246055044        2.0424155873       -1.0589399419
 O          5.3026796875       -0.7084473655        0.3984063662
 H          4.8170938517       -0.1914179166        1.0727332398
 H          5.7475059425       -0.0187941296       -0.1222113328
 O          4.0722350125        2.2130311670       -2.6181703720
 H          3.1845184524        2.3974266331       -2.2800949750
 H          4.6676399862        2.0927826501       -1.8606887211
 O          0.2017450657       -1.6126182282       -3.4104829709
 H          0.5717281837       -0.8151298674       -3.8369283890
 H          0.9103766901       -2.3018317424       -3.4363216627
 O         -2.4680210728        0.8131947391       -4.1709185992
 H         -2.4052497836       -0.1041031359       -4.4777901917
 H         -3.2297291936        0.8266189773       -3.5517894363
 O          3.8522053338        0.8200893603        2.1115876706
 H          3.3225266722        0.5528805627        2.8788708646
 H          3.2017092146        1.0147164904        1.4018220924
 O          1.1911696829        0.5232470038       -4.7221582309
 H          0.6424774235        1.3366054126       -4.6346197893
 H          1.3734143784        0.4353021269       -5.6581508310
 O          0.5179528917       -4.3492133965        2.2606268848
 H         -0.0203260991       -4.8230704296        2.8956321246
 H         -0.0595227176       -4.2025459853        1.4839567754
 O          3.5123093122       -4.2950477592       -0.2451739484
 H          3.7788611598       -3.9390531081        0.6154728643
 H          3.8492351221       -3.6593461479       -0.8985251738
 O         -4.5988502282       -2.7634950792        0.2085384775
 H         -4.3545061510       -2.7765833353       -0.7290203669
 H         -3.8335870723       -2.3557828497        0.6655426100
 O          1.2880549977        2.7210191501       -2.2721553760
 H          1.2046045153        2.9659408978       -3.1987946040
 H          0.5053755695        2.1627366904       -2.0898403303
 O         -2.7979040878        2.0829032304        4.0177516422
 H         -3.4685294572        2.2232378028        3.3432925040
 H         -2.1908352167        2.8545726751        3.9519565505
 O         -4.8126288769        1.1246744198        1.6929018392
 H         -4.6237299081        0.5792798580        2.4723760556
 H         -5.4151149051        0.5618269318        1.1579777503
 O          1.7964971989        2.9878651476        3.3851874890
 H          2.2695069245        3.4533947720        4.0762897833
 H          1.8969689664        2.0414114451        3.5708574079
 O         -0.9144957627        3.9114418142        3.4854287259
 H         -1.0373011580        4.2272851683        2.5755745395
 H         -0.0102521897        3.5669456017        3.5092720681
 O          4.6739241375       -2.9102963966        1.8906407058
 H          5.4502679659       -3.3157982685        2.2777092151
 H          4.9927962161       -2.1778897031        1.3307822841
