  249
       -422.61154129
 O          3.4741790991       -0.0929975639       -1.8366387653
 H          3.7972603362        0.1674436149       -2.7247757284
 H          4.1844392675        0.0991386841       -1.2079121528
 O          1.7235660580        0.5278350147        0.8006749561
 H          1.2571055243        1.0629418491        1.4717973406
 H          2.2303961480        1.1721054601        0.2769940477
 O          1.3009463588       -3.8924893461        1.7425960768
 H          1.1752770381       -3.5803261716        2.6606100190
 H          0.6563422897       -4.6030412521        1.5853188745
 O         -0.1374075831       -1.6061983469       -2.1790694741
 H          0.2625058592       -1.9917673706       -2.9819105910
 H          0.4263954610       -1.9136532030       -1.4355004594
 O         -1.8295322129       -3.5601281815        3.7512998994
 H         -1.5858592511       -3.5502065483        2.8085324542
 H         -2.7944703828       -3.6947552988        3.7370336463
 O          1.5562382441       -1.9950500376       -0.1683209882
 H          1.3767449466       -2.6614741723        0.5227120488
 H          1.4977269927       -1.1154844797        0.2488472841
 O          3.9507044495        3.8346614653        2.0063361490
 H          4.7277690983        4.2955944653        1.6736446426
 H          3.6563593890        3.2785475759        1.2426285749
 O          1.2498428219        0.7741795751        3.4945712512
 H          0.5196894939        1.3859681970        3.7199403908
 H          0.8186069024       -0.0199471560        3.1543002340
 O          0.7088235143        5.2604538054       -0.5412296781
 H          0.4156353032        4.3266037348       -0.6472889165
 H          1.3589766245        5.3674219934       -1.2511452074
 O         -1.4683614093       -3.2147484503        1.0363416560
 H         -2.3601131093       -2.9118970559        0.8033826079
 H         -1.0596804915       -3.5890863351        0.2380055478
 O         -3.8913356490       -4.4941169420       -0.9833125005
 H         -4.7771711070       -4.1822133525       -0.7685507406
 H         -3.3982184125       -3.7112816516       -1.2929522446
 O          2.0261044011        4.7828711096       -2.8737574864
 H          1.5611595010        4.0228787178       -3.2408508798
 H          2.8949838062        4.7817812096       -3.2806724371
 O         -1.5995498742        5.4696353135       -2.2238422541
 H         -1.4235443217        4.8019178952       -2.9062404971
 H         -0.7599402229        5.5924936980       -1.7561411773
 O          0.9736328178        0.8135222922       -2.1262467036
 H          1.8769587644        0.5289273025       -1.8736030846
 H          0.4440689637       -0.0143300742       -2.1754137216
 O         -0.8036498312       -0.4996580552       -4.8884221316
 H         -1.0613051635       -0.0864169885       -4.0421689166
 H         -1.1703819641       -1.4025940948       -4.8561561188
 O         -4.4590632411       -3.5077955139        3.0881135139
 H         -4.7283043931       -2.8171215388        3.7413231692
 H         -4.2321750287       -3.0023046139        2.2718175265
 O         -4.0072853103       -2.1397863372        0.8443213602
 H         -4.7715320785       -2.3959452028        0.2985803299
 H         -4.2050753686       -1.2378780627        1.1813501311
 O          7.2660243369        2.4774031878        0.9399895647
 H          7.9622194234        2.2008303686        0.3255414979
 H          6.8982033295        3.3231859724        0.6327957934
 O          0.2183412481        2.6088753845        1.7158862193
 H          0.6949528525        3.4099536319        1.9964874007
 H          0.0849128492        2.6875912784        0.7519813791
 O         -1.3120050137        3.1596918586       -3.8069743883
 H         -0.4196591996        2.9078082737       -4.1107077740
 H         -1.9169785772        3.0137229038       -4.5453743430
 O         -2.0228192879        0.6911192190       -2.7897262733
 H         -2.1391111251        0.6706934348       -1.7915410737
 H         -1.8031550978        1.6106591278       -3.0152942307
 O         -0.2913878890        2.8460676951       -0.8980836518
 H         -1.2593361346        2.8708926340       -1.0142667935
 H          0.0809426364        2.0822490993       -1.3768967155
 O         -2.2569597607       -2.7885364423       -4.5443782211
 H         -2.5340860143       -2.6527625004       -3.6100043729
 H         -1.7335444684       -3.5979108887       -4.5208196007
 O         -2.7720176732       -2.2170622607       -1.9872255426
 H         -1.8456167124       -1.9039735414       -1.9425476808
 H         -3.3541205072       -1.4535498673       -1.8141140704
 O         -4.5497405692        0.2374449468        1.8277608973
 H         -4.1351309268        0.3854307848        2.6966350891
 H         -4.6497049803        1.1103311167        1.4089739590
 O         -7.0986655298        1.6925616928       -3.4167573705
 H         -7.0195195981        0.7468894234       -3.6125168086
 H         -6.1786708072        2.0182275513       -3.3441926674
 O         -5.1180110644        2.5923818859        0.5529967348
 H         -4.3440553865        2.9713806963        0.1060305725
 H         -5.8339921638        2.5163558148       -0.0942104108
 O         -2.4283005145        2.9729019545        1.7535853953
 H         -2.3830964603        3.8482584766        1.3421274507
 H         -1.5012543633        2.7593250016        1.9928595296
 O          3.4595210731       -1.9914177861        4.4988012012
 H          2.6015760429       -2.4323468598        4.5240416937
 H          3.4767024025       -1.4827481228        3.6565681266
 O         -0.8985929178        2.1621793778        4.3642861938
 H         -0.6104380337        1.9302945231        5.2643996038
 H         -0.8280001206        3.1243023053        4.2553998544
 O          0.1826380621        0.8031894550        6.4679042368
 H         -0.1668259390        0.0023087428        6.0577284469
 H          1.1469625470        0.7658835108        6.3668456988
 O          4.9541183630        3.2365108163       -2.0711546495
 H          4.5814168464        3.2957105000       -2.9746920649
 H          5.5772406151        2.4726023774       -2.1260489366
 O          5.3719907969        0.6833992172        0.2282160669
 H          6.0615396945        1.3412958407        0.4400015130
 H          5.5650134677       -0.0616206037        0.8255646312
 O          3.6644598323       -0.5451781206        2.2660919944
 H          4.0912741425        0.2211440858        2.6988674579
 H          2.8737184269       -0.1735867286        1.8190112317
 O         -4.4995969675        2.1947690974       -2.8823068177
 H         -4.0136949100        2.1741379545       -3.7217124204
 H         -4.4104516182        1.3124672020       -2.4570000475
 O         -4.6957672990       -0.2511117418       -1.6999525948
 H         -5.2741648754       -0.5379991556       -2.4415587333
 H         -5.2974393523       -0.2073197632       -0.9326011617
 O         -7.4900960327        2.1007342447       -0.8600866184
 H         -8.2788601397        2.6217602489       -0.7168503830
 H         -7.4144593827        1.9580560129       -1.8424234622
 O          3.3454255432       -2.6910128282       -2.7685157002
 H          3.3535946955       -1.8663465199       -2.2454289035
 H          3.1864578435       -3.4468009787       -2.1545306422
 O          3.8670298173        3.0314311431       -4.5003391202
 H          2.9091043163        2.8621488318       -4.4768206067
 H          4.2535696841        2.1460614759       -4.6077053734
 O         -7.1074995569       -0.1816079327        2.9036033252
 H         -6.6987292972        0.7215907137        2.9881690236
 H         -8.0098343384       -0.0823669544        3.2084907626
 O         -3.7102122628        3.1470586248        4.0487659385
 H         -3.1502695539        3.7233259702        4.5710907298
 H         -3.2676599979        3.0880967078        3.1618840802
 O          8.3611964126       -1.3758843289        0.1561828858
 H          8.9794804932       -2.0291104274        0.4815241977
 H          7.6399888174       -1.3068441117        0.8533747503
 O          3.3925466127        2.3632108765       -0.1115117403
 H          3.7448604639        2.7914993167       -0.9156049488
 H          4.0902875705        1.7031061271        0.1134641759
 O         -1.7256517586        5.5410730263        0.9488017641
 H         -0.8353112383        5.5386382209        0.5693988463
 H         -2.2889153000        5.9574493377        0.2944300884
 O          4.2310337348       -2.0880244510        0.1284771864
 H          4.2586107696       -1.5558387179        0.9476090785
 H          3.2947982166       -2.0394753092       -0.1545971283
 O          6.2363763753       -1.4299111238       -1.6342152874
 H          5.5120236433       -1.7016217672       -1.0365725599
 H          7.0475415089       -1.5324980774       -1.1181089252
 O          5.4912648847       -1.9031280732       -4.2355917313
 H          4.7463886735       -2.4179042412       -3.8786900909
 H          6.0309232094       -1.7286573386       -3.4481321057
 O         -0.4906310417       -5.9599787666        1.2393252113
 H         -1.4538432405       -5.7726292808        1.3565065013
 H         -0.3356032410       -6.8166580019        1.6348946471
 O          4.5351137497        1.6250262227        3.6134622216
 H          4.0098292236        1.4579512106        4.4195883597
 H          4.2416663820        2.4625417969        3.2180499748
 O          3.9194410909       -4.4879127345        1.2342919270
 H          3.0163579985       -4.3318709121        1.5629718126
 H          4.1831106889       -3.6485837953        0.7967680546
 O         -6.3037836089       -2.9322676101       -0.4103159018
 H         -6.6099938019       -2.0100968686       -0.4745936045
 H         -6.6864502693       -3.2335090262        0.4455427796
 O         -5.2590203426       -1.4627720197        4.5630012587
 H         -4.5634431876       -0.7820512231        4.6075244490
 H         -5.9595472755       -1.0509595780        4.0319910837
 O         -2.9830252821        3.4715752084       -1.0602405602
 H         -3.5145509999        3.0708783281       -1.7742080463
 H         -2.6501853772        4.3159108754       -1.4185348997
 O         -0.8508937776        4.8625838330        3.6808891341
 H         -1.3788619879        5.1482184066        2.9256994967
 H          0.0639440481        5.0055101669        3.4008585430
 O          5.5459819999       -3.2881007436        3.2018052466
 H          4.8868389018       -2.9204181844        3.8168909150
 H          5.0601423641       -3.8736738944        2.5968080997
 O          2.6362429633       -4.7306744067       -1.2523986236
 H          1.7159241874       -4.5168409537       -1.0253900708
 H          3.1215912307       -4.8374736676       -0.4170947188
 O         -0.3358696384       -4.7185309755       -3.7730251931
 H          0.1126174369       -5.5364138414       -3.9880463383
 H          0.2901420487       -3.9980602198       -3.9931083187
 O         -0.1383363505       -4.4060835425       -1.0243110845
 H         -0.2710032670       -5.2293395995       -0.5356848630
 H         -0.3841480612       -4.5531782962       -1.9534335320
 O         -3.4049664934        0.4835132383        4.2907423715
 H         -3.4068296823        1.4573414261        4.3716434540
 H         -2.5102993469        0.1809250940        4.5073502115
 O          1.2615233191       -2.6201527743       -4.2663778052
 H          2.0911461615       -2.6984565120       -3.7127916934
 H          1.4597895739       -1.9556917367       -4.9337553206
 O         -7.0259621301       -3.1820040459        2.1259167865
 H         -7.1255340955       -2.2655888210        2.4072196931
 H         -6.2251059975       -3.5130481167        2.5727701420
 O         -1.4604813784       -1.2803757091        5.2056483123
 H         -1.9809498386       -1.4262314418        5.9964810256
 H         -1.6270181645       -2.0548474517        4.6270218679
 O         -5.9778772327       -3.5065064255       -3.1047485768
 H         -5.1354027939       -3.9683889251       -3.0790519990
 H         -6.2624170801       -3.4154315770       -2.1811374478
 O          0.8277963695       -2.8984631275        4.1973623960
 H          0.0947148295       -3.4387059882        4.5106912351
 H          0.4182366870       -2.0752184730        3.8834916903
 O         -3.1237611000       -5.6042224683        1.4033624745
 H         -3.6088366302       -5.0832431620        2.0518658689
 H         -3.3895015184       -5.2725124432        0.5230668087
 O         -6.7178404783       -0.3134486177        0.0921696990
 H         -6.6208379348       -0.2578633185        1.0574087670
 H         -7.1211147250        0.5257833878       -0.1896619910
 O          6.6156350060        1.1881549256       -2.3328574553
 H          7.4734056842        1.3004571070       -1.9052149872
 H          6.3441390485        0.2772225415       -2.1062787118
 O          8.9438996825        1.1008538024       -0.7485036364
 H          9.8738138138        1.0952909549       -0.9728112160
 H          8.7331804623        0.2055120541       -0.4003408771
 O         -3.6677188230       -0.3670377028       -4.6846874139
 H         -3.2698597529       -1.2017378924       -4.9607862219
 H         -3.1615507523       -0.0869164460       -3.8879515814
 O          1.5819107938       -0.1143874753       -5.7607666528
 H          0.6485049665       -0.2602785601       -5.4299703800
 H          1.5382444972       -0.1118442945       -6.7162351237
 O          5.8973276587        4.6603234560       -0.0088070594
 H          6.2756896526        5.4751499701       -0.3361927655
 H          5.5139799889        4.1982781729       -0.7873758911
 O          2.8851232851        0.5536113740        5.5279803707
 H          2.2751548210        0.6392030317        4.7562492055
 H          3.2304974571       -0.3514046328        5.4644303051
 O          7.1496642133        0.9647405346        3.3055193073
 H          7.3458088667        1.5690788650        2.5757183716
 H          6.2579718530        1.2202897374        3.6023923416
 O          6.4675645680       -1.1641590489        1.8938394355
 H          6.1737222987       -1.9587060601        2.4002459172
 H          6.7587361200       -0.4851586498        2.5479146564
 O          1.4986710661        4.9678833225        2.1285125926
 H          2.4235881487        4.6648062884        2.2060799171
 H          1.3729908846        5.2435262966        1.2058362991
 O          4.0807950551        0.3193348521       -4.4182705532
 H          3.2892083111        0.0644451816       -4.9078212968
 H          4.7042414690       -0.4476051927       -4.4707951481
 O         -6.1641648613       -0.9124375817       -3.8221272176
 H         -6.2293207226       -1.8805021885       -3.7090158075
 H         -5.3703913532       -0.7555849578       -4.3661795994
 O         -3.3349945975        2.1673568632       -5.4515299903
 H         -3.9849838470        2.4374678161       -6.0993198887
 H         -3.3752506119        1.1886727470       -5.3932066593
 O         -6.2179419935        2.3188934360        3.0837011987
 H         -5.4733059573        2.5713414733        3.6486273727
 H         -5.9330644647        2.5675548579        2.1896452307
 O          1.2141598214        2.2542548676       -4.2827716894
 H          1.1556757646        1.7248551000       -3.4411790956
 H          1.3361809804        1.5766516584       -4.9648727966
 O         -0.3419663329       -1.1751930397        2.3574368587
 H         -1.1730891221       -0.8063667171        2.6622284358
 H         -0.5807923139       -1.9318574424        1.7772325137
 O         -2.0035155952        0.5787871172       -0.0276282234
 H         -1.2062843301        0.2766872563        0.4135166579
 H         -2.4011004152        1.2581720087        0.5343107718
 O          1.7178911763        3.5418613520        4.8131976186
 H          1.7471093198        2.9672099356        4.0445831069
 H          1.8845645910        2.9960368529        5.5829680283
