  384
       -651.83489600
 O          4.9115984558        0.8357486654        2.1772353064
 H          5.6202413802        1.2090620819        1.6157726982
 H          5.0479677440        1.1560407198        3.0900819248
 O          1.1425880998       -1.9241498036        6.3537309987
 H          1.5819706452       -2.5829130008        5.7442242881
 H          1.2617625984       -2.2522307713        7.2448197190
 O         -0.1762851877       -5.6250582851        0.5116008743
 H         -0.2904126957       -4.7004729970        0.8044284655
 H          0.7001889531       -5.8721082165        0.8589162335
 O          4.5759399561        2.8395636478       -4.4405630710
 H          5.1387531819        2.0613632267       -4.6084067434
 H          3.8509548315        2.7774688619       -5.0781625390
 O         -1.3070782094       -3.0463989457       -1.1580272649
 H         -0.4575622740       -3.3174997728       -0.7742665830
 H         -1.9498871853       -3.7757757830       -1.0383805757
 O         -0.3352954504       -0.1909045977        4.3216527743
 H         -1.0652092436        0.2263413955        4.8029734795
 H          0.3341925434        0.5147630205        4.2076568198
 O         -6.2651629917        4.9250238604        0.5037575491
 H         -5.5828750347        4.2359090994        0.3701902500
 H         -7.1196354912        4.5174001745        0.2431431159
 O          2.4152660609        0.3443925531        1.5584750653
 H          2.2582631012        0.4485128954        0.6001258273
 H          3.3662520666        0.5329986409        1.6966158894
 O          2.4052915852        7.0536913487       -1.6385845331
 H          3.2940538977        6.9955541492       -1.9969331742
 H          1.8677620020        6.4330437479       -2.1524428368
 O          1.6071782454        1.5233463060        3.7723989020
 H          1.4444796710        2.4747811589        3.6409819595
 H          1.8823225176        1.1729031573        2.9016387196
 O          1.3029120080       -1.7173996550        2.8366807830
 H          1.7821690747       -1.0093909693        2.3561295005
 H          0.6726409391       -1.2579203914        3.4177543613
 O          1.3992663576        3.4604293085        0.0371726551
 H          1.5781005903        4.3675134109        0.3340528180
 H          2.2639311436        3.0225614566       -0.0632212581
 O          6.9335645527       -0.4841169841       -0.9730137329
 H          7.7883986864       -0.0169035904       -1.0503442803
 H          7.1149725061       -1.4181105488       -1.1681631125
 O         -5.2241052318       -1.1174465938        4.8680068640
 H         -6.1444798319       -0.9262847976        4.6359167060
 H         -5.0751226415       -2.0571732150        4.6146333085
 O          2.2121583129       -3.5494635978        4.6049939010
 H          1.5514365126       -4.2328460390        4.3816160408
 H          2.1164594832       -2.8796911975        3.8966849630
 O         -4.2263403536        6.8719606038        0.9536344108
 H         -3.7540108493        6.7355115760        0.1246747445
 H         -5.0348161557        6.3445256565        0.8977251889
 O          4.5066290725       -6.3151578565        0.1667967831
 H          4.4245956179       -5.6281634898       -0.5083716503
 H          3.7025278643       -6.2776461628        0.7083078379
 O         -6.2019399043       -3.0732825876       -0.9358429230
 H         -6.1918254268       -3.9066454434       -1.4391369133
 H         -5.5061490565       -3.1464600727       -0.2720619837
 O          3.0795227752       -0.1800495719       -3.5247847144
 H          3.2477882339       -0.0624380871       -4.4749148586
 H          3.8216330687        0.2450067164       -3.0520385243
 O          3.3686298367       -2.8770929868       -3.7966363532
 H          3.0721370114       -1.9681065413       -3.5801774735
 H          2.5727982358       -3.3836822852       -4.0469183595
 O         -2.2831367558        1.3096688146        5.5325065609
 H         -2.8936234011        1.1144322662        4.8041031700
 H         -1.9603710760        2.2111619922        5.3556037621
 O          1.3129652400       -3.3608254469       -0.5586984492
 H          1.4572294590       -4.2653532265       -0.8790373402
 H          2.0047640997       -3.1815578242        0.1032886465
 O          4.0409756570       -1.5439414707        3.2294752065
 H          3.6639130570       -1.0530592996        3.9898837605
 H          4.5396047213       -0.9036272952        2.6963746906
 O         -3.7945809642        3.7902762330        0.1927204594
 H         -3.4373200095        4.5503787792       -0.3045823645
 H         -3.6621088049        3.0043727422       -0.3587018163
 O         -4.5871727282       -3.5410901566        3.9542066490
 H         -5.1910254117       -3.8781871911        3.2604565059
 H         -3.8639776848       -3.0824272237        3.4884859163
 O         -2.6925792307       -5.4584622283        1.7485303265
 H         -1.8506461939       -5.7215189685        1.3487703050
 H         -2.5289220806       -5.3485493397        2.7022290983
 O          9.2184653760       -1.6944458472       -0.0196412364
 H          8.9611653408       -2.4903823152        0.5101928258
 H         10.0692740245       -1.8896815628       -0.4081055725
 O         -1.0372809637       -6.6949902672       -1.7823290508
 H         -0.4409336398       -6.4584785155       -2.4938209352
 H         -0.6178722025       -6.3929697858       -0.9524105682
 O         -2.2850501190        2.4697158966       -5.4908838258
 H         -3.1130921531        2.0073215258       -5.2883170442
 H         -1.6766226469        1.7882073120       -5.8271164133
 O         -3.7609752521        0.5064442157        3.3341178926
 H         -4.3800522777       -0.0347928115        3.8756334280
 H         -4.0017311248        0.3536630382        2.3893995332
 O         -4.5850893327       -0.9467252323       -5.8489400045
 H         -4.9275462459       -1.5911119753       -5.1948971871
 H         -4.7430411783       -0.0638506040       -5.4820739934
 O         -5.7569698786        6.0559591655       -1.9694325241
 H         -4.8453760969        6.3394422300       -1.8280744841
 H         -6.0868943579        5.7717447616       -1.0964563581
 O         -6.2008897330        4.2058365534        3.1716633110
 H         -5.2823774471        3.8843788896        3.1819760322
 H         -6.3080003776        4.6618624390        2.3175588844
 O          5.0885045842        1.1059532818       -2.0852896475
 H          4.7039889867        1.5343394678       -1.2976151654
 H          5.7488245367        0.4703936708       -1.7430178881
 O          9.5806689130       -0.7272376777       -3.4142202132
 H          9.1957598898       -0.1117544432       -4.0775305961
 H          9.5763849188       -0.2203830116       -2.5889709803
 O          1.9707565354       -5.7206044767       -1.7886278641
 H          2.8326191463       -5.2474432347       -1.7775273732
 H          2.1243663830       -6.5829892827       -1.4002974889
 O          4.2211461193       -1.5276140285       -0.8217748467
 H          4.8266697318       -1.4090666821       -1.5724244536
 H          4.7572568987       -1.4381614328       -0.0130193111
 O          8.2954876005        1.0788284589       -4.9391555771
 H          8.1212840050        1.7677451152       -4.2822082253
 H          7.4152919450        0.7914065408       -5.2224552928
 O          1.1639022735       -4.3824968568       -4.1658216669
 H          0.2259141192       -4.1031066775       -4.0818539863
 H          1.3428693168       -4.9755150540       -3.4261641586
 O         -1.4422484033        3.6624559576        4.4544989789
 H         -1.5630335096        4.5945573667        4.6473108232
 H         -2.0749282133        3.4721620673        3.7340886845
 O          2.0042262396        2.4543869481       -5.3937003683
 H          1.9733456743        2.3151913533       -4.4279293148
 H          1.2927578069        3.0805541763       -5.5769340106
 O         -2.1108146765       -1.1728222077       -4.9821458568
 H         -1.4864318740       -0.6575790853       -5.5241274167
 H         -2.9930120464       -1.1301754141       -5.4227740476
 O         -3.7653771940       -1.9368454888       -1.7119152202
 H         -2.8901984209       -1.5480649350       -1.8795459564
 H         -3.7166646668       -2.4235672467       -0.8694709513
 O         -3.1421465962       -1.0811882466        6.6962957263
 H         -2.8617558177       -0.1690747886        6.5501174566
 H         -3.9926161869       -1.1587435394        6.2367494368
 O         -1.3559724989       -3.5329946627       -3.8817510878
 H         -1.4021918012       -3.3183858463       -2.9318172060
 H         -1.5856940858       -2.7121208600       -4.3565462110
 O         -5.2883582229        3.8720014380       -3.3669753042
 H         -5.5979588137        4.7220516033       -2.9710679094
 H         -4.3293372793        3.8857549527       -3.2468123863
 O         -3.8192305782       -4.8650823657       -3.8920887548
 H         -2.9919049626       -4.6055806864       -4.3184741265
 H         -3.5789105709       -4.8799929485       -2.9369630730
 O         -9.4503404144        1.4788544426        1.0677428724
 H        -10.2376871211        1.8402736749        1.4745259553
 H         -8.6898512240        1.6829460764        1.6817466281
 O         -0.8556763625        4.5006309891        1.5238395494
 H         -1.2195096741        3.5976728962        1.3328846401
 H         -1.5329311963        5.0044836743        2.0212275161
 O          3.9439171460        2.5446299805       -0.0818090719
 H          4.2354136133        3.3967091605       -0.4766248524
 H          4.0991977391        2.6404103606        0.8711874862
 O          1.2702398801        4.8620727973       -2.9467165244
 H          0.7190455935        4.6799311920       -3.7196071584
 H          1.6507087208        3.9986341859       -2.6704083333
 O          3.8734365809        3.7664450272        2.3895901858
 H          4.1501628929        4.6414551620        2.0269691242
 H          2.9011593068        3.8235140251        2.4477538008
 O         -1.7030874814       -0.3320361482       -2.5326169064
 H         -2.2407002495        0.4134710455       -2.1932453728
 H         -1.9946362618       -0.5479031359       -3.4471513732
 O          4.0128754366        5.3426084684       -3.5374277461
 H          3.0527457497        5.2053269056       -3.5132692650
 H          4.3869388221        4.5518595465       -3.9604662381
 O         -4.6336768440        1.3919988319       -4.3902099518
 H         -4.9254520400        0.9114063639       -3.5974971172
 H         -5.0811365016        2.2470964572       -4.3574863406
 O          5.6175717179        0.4215730210       -5.1564379905
 H          5.6528568354       -0.2380071014       -4.4287274495
 H          4.9278888928        0.1394364082       -5.7686316464
 O          8.5201652420       -3.7840516738        1.4291763404
 H          8.4005563918       -3.6011900204        2.3840968445
 H          7.6547630427       -4.0708489788        1.1072759516
 O          2.5068842161        2.5256856686       -2.6419451320
 H          3.4275295781        2.5809660637       -2.9449851591
 H          2.4648901893        1.8021828560       -1.9884868949
 O         -3.0660084863       -5.0301182320       -1.3491592785
 H         -3.7613540412       -5.3493618449       -0.7398052446
 H         -2.4336138972       -5.7646582609       -1.4947921847
 O          7.2577901362       -0.5000163324        3.4957740758
 H          6.7082395952       -0.8052176869        2.7407292583
 H          6.7118031838        0.0835013041        4.0333721306
 O         -5.4567193423        0.0102045555       -2.0902590290
 H         -4.8977339444       -0.7701540114       -1.8672193049
 H         -6.2172354098       -0.0257863642       -1.4760748822
 O         -6.1714880553       -5.4890874284       -2.2084885945
 H         -5.8524361105       -5.9613352461       -1.4274009150
 H         -5.5006889916       -5.5778863634       -2.8948296517
 O         -6.2196753257       -4.1862400178        1.9373131088
 H         -7.1485459858       -4.3843934591        2.1684294312
 H         -6.2137907642       -3.2502432065        1.6430920728
 O          6.0294921441       -1.4897085885        1.2846808700
 H          6.5394234281       -1.0222068640        0.5898190182
 H          6.2619968458       -2.4236789365        1.2067326581
 O          3.7735752584        3.4390608975        5.1762245637
 H          3.6895728356        3.6682176465        4.2384593053
 H          2.8676232248        3.3538933626        5.5175911182
 O         -2.3388743685       -5.0165783923        4.4647270779
 H         -1.9233942193       -4.2325245858        4.8677263578
 H         -3.2872919670       -4.8256798590        4.5301698402
 O          4.5003631587        6.0930441127        1.2960427865
 H          4.6087535750        5.7541113712        0.3816109710
 H          3.5899587765        6.4219325423        1.3241404412
 O         -5.8884038399        2.0504503436        0.2150874380
 H         -5.2420045657        1.3279057915        0.2724831968
 H         -6.3472527739        1.9856035344       -0.6357478093
 O          2.9722293250        0.0132969913       -6.2117945588
 H          2.2665421440       -0.6402851701       -6.0466937493
 H          2.5682235276        0.8944554691       -6.1337763203
 O          7.8209021509       -3.1617315948        3.9753603118
 H          7.7453130205       -2.1935455744        3.9482112122
 H          6.9353030558       -3.4933158287        4.1722132361
 O         -4.9868266498       -5.9414018017        0.3090942762
 H         -5.5186617069       -5.3064866617        0.8373464714
 H         -4.3134262209       -6.2481929521        0.9295647424
 O         -3.6392049861        3.2153875840        2.8440434417
 H         -3.7354562124        2.2580000724        2.9852200513
 H         -3.6234308061        3.3625954237        1.8746356323
 O         -7.6336823847       -0.2358199382       -0.5086622209
 H         -8.2144267296        0.4450812497       -0.1550719228
 H         -8.1661499065       -0.7447716649       -1.1665074562
 O          5.0650503087       -3.8379356120        4.0560049502
 H          4.7837715062       -2.9359862776        3.7753217602
 H          4.2885921893       -4.1879832069        4.5027856022
 O          6.5049675722        3.4740656365        3.2477202764
 H          6.5860754860        2.9836077668        4.0692439649
 H          5.5522756452        3.5662748927        3.0778153227
 O         -8.8728256820       -4.3199235406        2.3173471416
 H         -8.9970447864       -4.0283576242        1.3983146610
 H         -9.2486835798       -3.6252794082        2.8625708326
 O         -7.8019203104       -3.5231235687       -3.5182946850
 H         -7.6555548448       -4.3667332337       -3.0796811443
 H         -6.9059774171       -3.1688308791       -3.6922100241
 O         -2.7142258567        5.8566710890        2.9259280479
 H         -3.1930627376        6.3997534971        2.2660361918
 H         -3.3522874039        5.1876168463        3.1942259432
 O         -8.7150007764       -2.9623727396       -0.0411825579
 H         -9.2266851304       -2.7307883795       -0.8206100720
 H         -7.7744477382       -3.0008770344       -0.3434180357
 O          2.2535710768       -5.7035898486        1.6743653160
 H          1.8221867830       -5.7857436759        2.5345880293
 H          2.5615153842       -4.7690401759        1.6199301700
 O         -0.4798338687       -3.3222912742        1.8111302621
 H         -1.2709607042       -2.8408321835        2.1102840246
 H          0.2705184975       -2.7293049758        2.0362883909
 O         -0.1448628298        4.2495283500       -5.3292399435
 H         -0.2929479512        5.0036321381       -5.8996100585
 H         -0.9196582523        3.6717368732       -5.4181189423
 O         -7.2857548222        1.9274313802        2.4335695993
 H         -6.7341773356        1.9265974216        1.6109650800
 H         -7.0375601403        2.7750315014        2.8732265240
 O          7.3213647490        2.5680523490       -2.7883994481
 H          7.3251966893        3.3596288293       -2.2340678226
 H          6.4581489777        2.1285732083       -2.6483897935
 O         -4.2043767536        0.0221929657        0.7830067497
 H         -4.8434560653       -0.7130456450        0.9118836392
 H         -3.3341486913       -0.3559751778        0.5381881692
 O          3.2830222748       -3.2699193792        1.2925952266
 H          4.2121188777       -3.5783905070        1.2161053336
 H          3.3245105319       -2.5795241644        1.9785669365
 O         -3.3515776942        1.6151814297       -1.5724465144
 H         -4.2007396613        1.1601687839       -1.7215066054
 H         -3.2275042429        2.3013536864       -2.2497891283
 O          4.1086766120       -4.1035758431       -1.5951168796
 H          3.9890638613       -3.3070084553       -1.0339648607
 H          3.9368108573       -3.7394169280       -2.4971599210
 O          0.8023530502       -1.6264712449       -2.5156887896
 H         -0.1416855610       -1.5279142624       -2.3394825389
 H          1.1163037083       -2.3076130440       -1.8889926846
 O         -0.4177553939        0.6325695124       -6.0914234777
 H          0.0468812935        0.7668790300       -5.2257179669
 H          0.2182461865        0.2334330378       -6.6852657150
 O          0.2707519779        0.8129637009        7.0061274107
 H         -0.6771950315        0.9286482588        6.8973077068
 H          0.4805203211       -0.0646299604        6.6633018402
 O          0.3267891548       -5.1840899419        3.5976280322
 H         -0.4397772574       -5.5094978065        4.0782219395
 H         -0.0293754758       -4.5222139444        2.9604510913
 O         -7.1221278775        2.2362111567       -2.2792597932
 H         -7.4140582286        1.6229354524       -2.9628310529
 H         -6.4886030217        2.8517996546       -2.6980304307
 O          2.2335738955        0.2624052768       -1.0661542404
 H          1.6303833663       -0.3085002976       -1.5686016010
 H          3.0478554222       -0.2803609486       -1.0051936099
 O         -0.3860112827        2.7787867959       -1.7985010414
 H          0.0922673322        2.2174026244       -2.4272310053
 H          0.2676195858        3.0497199022       -1.1153016096
 O          7.2889674317        4.1922399783       -0.6022391960
 H          7.4737579988        4.8535144167        0.0962861051
 H          7.1665963233        3.3513405205       -0.1050193615
 O          1.8453839971        6.1169337407        0.7989529197
 H          2.0330164625        6.5063094102       -0.0848819313
 H          0.9636040902        6.4175289822        1.0268862184
 O          1.0740472601        3.2523465222        5.9223154309
 H          0.9583662065        2.4248056088        6.4163635487
 H          0.2752078108        3.3440160755        5.3902060488
 O          7.2638538413        5.6756181506        1.6389958758
 H          6.3879847022        6.0832819586        1.6119506994
 H          7.2137841988        5.0089198460        2.3369811821
 O          5.6817948625       -1.5430634449       -3.3126497580
 H          5.0356740900       -2.1556605870       -3.6866068979
 H          6.5525533553       -1.9822742506       -3.3608722807
 O          6.9552827439        2.0721980731        0.9852401199
 H          6.9563121555        2.6312689431        1.7855744576
 H          7.7282169998        1.4613438099        1.0965609385
 O          5.7407756454       -4.3162761220        1.4837872637
 H          5.5397670615       -5.2019989741        1.1295145728
 H          5.6348853715       -4.3484901173        2.4540621673
 O         -6.2107009517       -1.5506245135        1.3957851316
 H         -6.7872678130       -1.2258485040        0.6780481999
 H         -6.5988360509       -1.2007429875        2.2303847222
 O          6.7998460383       -3.2554294728       -1.0218223905
 H          7.4273573774       -3.3818363303       -1.7430954750
 H          5.9944216628       -3.7315015995       -1.2585050560
 O          1.2698958227        4.0889319667        3.0350560788
 H          1.1580168787        4.7030251164        3.7605481338
 H          0.5077488824        4.2171191005        2.4158167277
 O          0.5035168305        0.8993393314       -3.6270253272
 H         -0.1815657539        0.3636423720       -3.1895135581
 H          1.3618804873        0.4516389117       -3.4951229069
 O          1.0001438338       -1.6693501027       -5.3181904668
 H          1.0377068959       -2.6041492082       -5.5283647809
 H          0.9482556267       -1.6234697536       -4.3454138541
 O         -2.4940630829       -1.9975950613        3.0630427654
 H         -2.6459290802       -1.0405755097        3.0694756520
 H         -2.0131521849       -2.1840896708        3.9046324362
 O          3.0517274113       -0.1509001479        5.2757602529
 H          2.4088560846       -0.6719586307        5.7747299545
 H          2.5438233661        0.5686121097        4.8465803616
 O          5.3052888351        1.3083242012        4.8066380557
 H          4.7466989998        0.6124680549        5.1810164666
 H          4.8101717031        2.1284931781        5.0453926482
 O          4.7868814383        4.8523422351       -1.0501898949
 H          5.7553145938        4.6706826318       -1.0093430904
 H          4.5625242505        5.0811039641       -1.9783253590
 O         -1.4019210545       -2.6186149228        5.3947421334
 H         -0.5269085389       -2.2642895632        5.6217365312
 H         -2.0461422612       -2.1388024536        5.9645916974
 O         -0.4727010456        5.7771464045       -0.8162558370
 H          0.0742741002        5.3170980406       -1.4680712796
 H         -0.5159214834        5.2124278188       -0.0158589394
 O         -8.4740642030        3.6977784525       -0.4113902333
 H         -8.9002279970        2.9790573489        0.0747804242
 H         -8.1030345055        3.2830227359       -1.2073323034
 O          8.0580912321       -2.8129051683       -3.4335291752
 H          8.3600116413       -3.3084768929       -4.1936206570
 H          8.6753784236       -2.0230275719       -3.3667089259
 O         -7.4695504999       -0.5250302824        3.4853982806
 H         -8.3221687913       -0.8243846572        3.1049998389
 H         -7.3915427482        0.4212876995        3.2496043555
 O         -2.4842435963        3.6835102705       -3.0763436306
 H         -1.6584988343        3.4640080147       -2.5758257774
 H         -2.3415086271        3.3415699913       -3.9754033780
 O         -5.2649396368       -2.6494648192       -3.8777343319
 H         -4.8530035156       -2.3821208422       -3.0352363547
 H         -4.8194563580       -3.5045180689       -4.0718009340
 O         -7.3562853832        0.0029589675       -4.0977350349
 H         -6.6490451006       -0.3013402571       -3.5010748569
 H         -7.2365721191       -0.4631903411       -4.9262933078
 O         -2.9866543667        5.8207981192       -1.4274047210
 H         -2.0402673384        5.9771665657       -1.1727020287
 H         -2.9074546470        5.2381587761       -2.1972173165
 O          8.9492746784        0.4803333264        1.5343712927
 H          9.0939586925       -0.2952664152        0.9511295047
 H          8.5897803075        0.1203440125        2.3614250045
 O         -9.5071660011       -1.2240739449        1.9182929165
 H         -9.2112779084       -1.8282247536        1.2089971579
 H         -9.6479515070       -0.3646632213        1.4957718520
 O         -9.0171662935       -1.4487410883       -2.4150355611
 H         -8.6242378305       -2.2710528545       -2.7950775852
 H         -8.8370675202       -0.7797224266       -3.0892585047
 O          9.0643561689        1.0798403164       -1.3980110345
 H          9.3561092113        1.5185272285       -0.5973168117
 H          8.5135608630        1.7088833581       -1.9177976882
 O         -3.7228520861       -3.1114398316        0.7490180085
 H         -3.3383773120       -2.5177003349        1.4040751089
 H         -3.4227172750       -4.0024629433        1.0111948314
 O         -1.9573353154        1.9492507071        1.4330847703
 H         -1.3100341742        1.2766867215        1.6603885144
 H         -2.5354398022        1.5589985487        0.7718190101
 O         -1.9012497219       -1.0254388666        0.3947442182
 H         -1.7104609374       -1.7725437931       -0.1996572343
 H         -1.1885212776       -0.3802186310        0.2456360766
 O         -0.1334751922        0.8295476936        0.0655884666
 H         -0.5224842601        1.5485194714       -0.4516377723
 H          0.7850841661        0.7631701568       -0.1994812961
