  189
       -320.74864776
 O         -2.6732894151        0.7316959687        3.1162289679
 H         -3.5575059074        1.1307378100        3.2476263467
 H         -2.6585389796       -0.0841203418        3.6536165284
 O          1.8347345838        4.4913756936        2.7070830518
 H          2.0975774604        4.6196648605        1.7775950165
 H          0.8713946904        4.5187726935        2.7155659244
 O          5.5168641276       -5.0569844645       -0.9591232268
 H          5.8293805586       -4.6465006999       -0.1430008029
 H          5.6881310169       -4.4338710879       -1.6773657319
 O         -0.2394086696        0.4313673838       -3.6488409343
 H         -0.2708275846       -0.4652447652       -4.0713837590
 H         -0.4122653077        1.0899103658       -4.3222321246
 O         -2.1430195311        4.9536503228       -1.4134433277
 H         -1.4111056962        5.4986996338       -1.0715501381
 H         -2.9321984083        5.2200403097       -0.8905616215
 O          3.1924643762       -4.0899615296        1.6754406751
 H          3.0322988057       -4.6755945793        0.9166009737
 H          2.9862133515       -3.1972725551        1.3130694923
 O          3.6861065542        0.9483240795       -5.0507711164
 H          3.4504233766        1.5895929785       -4.3421856847
 H          3.9184868401        1.4551132212       -5.8277014826
 O         -1.8178729758        0.5867515771       -1.5009466921
 H         -2.7660324699        0.4108983901       -1.6227806588
 H         -1.3759677892        0.5602978574       -2.3707971993
 O         -0.3721576578       -3.1220018511        1.5784240871
 H         -1.2880996164       -3.2274427299        1.8507322809
 H         -0.2982175142       -2.2170832777        1.1472508580
 O          0.6902906997        3.4126435072       -2.2678089816
 H          1.5708505947        3.1355819440       -2.5826798425
 H          0.7766560914        4.3091066007       -1.9379588003
 O          3.4612572275        2.4647262994        3.5272315798
 H          2.9468253873        3.2637571160        3.3036347792
 H          2.8431475449        1.8714959989        3.9725218331
 O          0.1164121886       -5.0129527743       -0.3120923495
 H          0.0704021660       -4.3826867049        0.4380888167
 H          1.0485508567       -5.2520021747       -0.4138948582
 O         -3.3209837606        1.0877793553       -4.0842019020
 H         -2.6941361964        1.8193158890       -3.9093144963
 H         -4.1837716441        1.4233491841       -3.8110022774
 O          5.4705533649       -0.1185851687       -3.2268960194
 H          4.9351618470       -0.0420227425       -2.4148338158
 H          4.9166700889        0.2015819208       -3.9548394018
 O          1.3447429046        0.9224386426        4.8580436118
 H          0.5583469847        1.4695504167        4.5769594466
 H          1.5239928374        1.1719880857        5.7658795776
 O         -5.8597360183       -3.6543704248        2.1277551777
 H         -6.4899653811       -4.3279753861        2.3815065789
 H         -5.7884667725       -3.7035475798        1.1422214072
 O          1.4072334460       -3.2511420971        3.5629002970
 H          2.1105016962       -3.7970308811        3.1726838852
 H          0.7269890454       -3.2126227911        2.8524102848
 O         -6.1622095701       -0.3424341466        0.7593685558
 H         -5.4839134843       -0.3020616557        0.0601161156
 H         -5.7140890903       -0.6569168827        1.5595154520
 O         -5.3883968010       -4.0650368668       -0.4491547421
 H         -4.5061181038       -4.4655348780       -0.4611975218
 H         -5.3887513553       -3.4250277148       -1.1748241547
 O          2.7505742094       -0.9612426486        3.3439297023
 H          2.2896148033       -1.8125335642        3.5250671928
 H          2.3273806937       -0.2890614486        3.8906031733
 O          2.7152775788       -1.6530614108        0.7103663975
 H          3.3725739211       -1.1958124784        0.1460549628
 H          2.7842529783       -1.2629106606        1.5981159616
 O         -5.3117029114       -1.2052973391        3.3257487034
 H         -4.4753634477       -1.3891750273        3.7762357583
 H         -5.6531981662       -2.0643978662        3.0360461464
 O         -2.1873092987       -2.1589972409       -1.1622778025
 H         -2.5141009900       -1.8569546896       -2.0285995273
 H         -2.5243073042       -1.5449654340       -0.4811091151
 O          5.4145659197       -0.9706297931        2.7111988880
 H          5.3689311446       -0.1480198555        2.2062877278
 H          4.5401831026       -1.0527993269        3.1236001661
 O          2.2932524396        4.4332585300        0.0094691342
 H          1.9114605628        3.5312403953       -0.0169937973
 H          3.2019948417        4.3250631751       -0.3057145985
 O         -3.7763196749        1.9159318285        0.6708822796
 H         -2.8858464237        2.2082121128        0.3826965145
 H         -3.7984161249        0.9573946269        0.5537557274
 O          1.8529652090        0.2978605861       -1.9086895054
 H          1.1040226689        0.3343381123       -2.5316387696
 H          1.5693049195        0.7904506147       -1.1150818563
 O         -3.6769324513        3.8992973442        2.5342027912
 H         -4.1263542644        3.6948335423        3.3565579917
 H         -3.7890928705        3.1018620738        1.9797913545
 O         -3.2504570826       -0.9160566466        0.9995996629
 H         -3.3130370791       -1.8024147284        1.3949941480
 H         -2.8805607889       -0.3458200645        1.6963208154
 O         -1.6890599073        3.1385349511       -3.4994620697
 H         -2.1190703909        3.8549511180       -3.0152655668
 H         -0.7860451055        3.1196954056       -3.1300148408
 O          7.5673914368        0.5343670540       -1.4995545316
 H          7.4828621144       -0.3182136769       -1.0439682823
 H          6.9759224933        0.4574693457       -2.2647910613
 O          4.6155869854        3.2110158731       -0.7485112376
 H          5.5760000683        3.3022474693       -0.7214301087
 H          4.4263061399        2.5811917994       -0.0272512901
 O         -0.0497621316        5.8979444689        0.0278166679
 H          0.8553504483        5.5571368554       -0.0258279156
 H         -0.3915817319        5.5903475451        0.8786886915
 O         -2.6644431399       -1.7246958561        4.2179006944
 H         -1.7950643980       -1.6922707275        4.6691233001
 H         -2.6169588378       -2.4636468699        3.5972140740
 O         -0.7563404073        2.2996340772        4.1819767140
 H         -1.4613445689        1.7098576929        3.8434229627
 H         -0.7131034964        3.0350091096        3.5494618373
 O         -4.2274820884        5.4156253639        0.2031443563
 H         -4.8914738735        4.8037282229       -0.1562645775
 H         -4.0361124213        5.0950696958        1.0963708927
 O         -5.7533932935        1.9308449398       -2.8844653630
 H         -5.7465371508        2.5209482108       -2.0890475282
 H         -6.5727693566        2.1031660287       -3.3465213375
 O          2.8353246041       -4.8995149291       -0.8777050676
 H          2.7964388462       -4.0245436848       -1.2889842163
 H          3.7684727393       -5.1797680862       -0.9752715385
 O          0.1346142913       -3.0454538220       -2.1120981032
 H          0.1464034389       -3.8914648472       -1.6152793959
 H         -0.5788054736       -2.5363717032       -1.6833594710
 O          4.5035852586       -0.2304020624       -0.6602801674
 H          5.3030006128       -0.8041219888       -0.5474349855
 H          4.5875587420        0.4599413593        0.0127695179
 O          7.0868598546        2.4573718702        0.2536525606
 H          7.2643164104        1.7414970290       -0.4097060104
 H          7.9446134559        2.7157590028        0.5890770644
 O         -4.5285542246       -0.0539052238       -1.4357290098
 H         -4.7662805628       -0.9135047815       -1.8186327831
 H         -4.9959768805        0.6137784138       -1.9627872086
 O         -2.8615191067       -1.5097581010       -3.7283269456
 H         -2.0877178341       -1.7699415599       -4.2449997797
 H         -3.0110134004       -0.5522967116       -3.9028551671
 O          2.6827250164       -2.2846653933       -2.2574472505
 H          2.6503507128       -1.3633349570       -1.9453730860
 H          1.7472033755       -2.5780589009       -2.2188776539
 O          5.3684031245       -2.8127103800       -2.7200596647
 H          5.5768878984       -1.9740275772       -3.1683854552
 H          4.4127130514       -2.7604320448       -2.5531936107
 O         -0.2365371901       -2.0203900777       -4.5940935236
 H         -0.1244559648       -2.5491049649       -3.7796937264
 H          0.6737230682       -1.9438262615       -4.9523490037
 O         -7.0801038686        2.0006631203        1.4207013631
 H         -6.7730045240        1.0989316780        1.1159800866
 H         -7.9850114151        1.8936242637        1.7113630877
 O         -0.9945681752        4.1595328483        2.1316807975
 H         -1.0440886269        3.5944298430        1.3409834349
 H         -1.9263257587        4.2849985876        2.3893338164
 O         -5.2256417176        1.5982806355        3.4638846081
 H         -5.8102597861        1.8999866737        2.7467700000
 H         -5.4726487784        0.6759080556        3.6171207940
 O          6.5825119496       -1.8403101475       -0.5192383379
 H          6.4062696491       -2.4380250296        0.2384367398
 H          6.3037546463       -2.3204076263       -1.3243414240
 O         -1.4034443754        2.7578949543       -0.1998552899
 H         -1.6318309989        3.5598374103       -0.7407397911
 H         -1.5033953138        1.9764790816       -0.8078233611
 O          3.1321255430        2.3782524880       -2.8769304933
 H          2.7698053724        1.5441059505       -2.4839644239
 H          3.7698329430        2.7135658679       -2.2209799768
 O          2.3765683896       -1.5854328655       -4.9336534641
 H          2.6281241397       -1.8867090235       -4.0422645188
 H          2.7853564580       -0.7178551574       -5.0500936991
 O          5.8118940127       -3.3980482103        1.5067327879
 H          4.9097765460       -3.7588478760        1.6341660258
 H          5.8321594682       -2.6094618567        2.0800781199
 O         -0.1452093759       -1.5313660644        5.1278754114
 H          0.3529882256       -0.7048372839        5.0486794457
 H          0.4134435713       -2.2345175056        4.7669448837
 O         -2.6698755912       -4.6128471173       -0.3121616431
 H         -1.8300872939       -5.0880145865       -0.3532247616
 H         -2.4838478246       -3.7317919332       -0.7172494252
 O         -5.1587257177       -2.4066557484       -2.7291294956
 H         -4.3162989127       -2.2760838139       -3.2119453011
 H         -5.8439936836       -2.5171048457       -3.3877696578
 O         -5.6999845715        3.2163239717       -0.5802701991
 H         -6.4179689519        2.9858802137        0.0311961594
 H         -4.9312981026        2.7275778377       -0.1979751246
 O         -3.1412531022       -3.4756798765        2.0481916803
 H         -4.0737246169       -3.6372840741        2.2679224545
 H         -2.9849926649       -3.9999751246        1.2261415952
 O          4.7763603438        1.5247929578        1.4201872969
 H          4.3361803022        1.8874603142        2.2266477715
 H          5.6688283546        1.9025466857        1.3646752311
 O          1.8166524035        1.6511115827        0.5241271146
 H          1.0969572799        1.4270571879        1.1541528405
 H          2.6192704154        1.3924015804        0.9854273707
 O         -0.0284077486       -0.9924399262       -0.0140721738
 H          0.9039023206       -1.0500845444       -0.2641584261
 H         -0.5300279303       -0.4206601499       -0.6218864532
 O          0.0094529639        0.5302754972        2.1322896986
 H         -0.0293111202       -0.1469643380        1.4345268368
 H         -0.8971333886        0.7982267933        2.2984840578
