  132
       -218.70000581
 H         -2.5145902341        0.4014728556        1.4327022902
 C         -2.3016111601       -0.5628620478        0.9704468890
 H         -2.7341463619       -1.3518122865        1.5875019270
 C         -0.7920880140       -0.7505842107        0.8839935744
 H         -0.5457039199       -1.7310362941        0.4763341724
 H         -0.3752644718       -0.6566322308        1.8855732941
 O         -2.8978348449       -0.5368608393       -0.3055650817
 H         -2.8284800180       -1.4333801840       -0.7006391814
 N         -0.2352200597        0.2909333929        0.0033980951
 H         -0.5087308058        1.2393606638        0.3623264233
 H         -0.6422130275        0.2087232856       -0.9650245163
 H          0.7954823665        0.1850861872       -0.0495548014
 O          5.9908787895        1.2473527695        1.5540007523
 H          6.9105588540        1.2614307500        1.8192805377
 H          5.4578052247        1.3809273965        2.3849464475
 O          2.6546389114        0.1598060868       -2.9057936219
 H          2.5682851975       -0.7690033379       -2.6415048029
 H          2.4856791582        0.6978611532       -2.1024607655
 O          4.3461502530        3.8790676030       -2.4213730701
 H          4.4690151441        3.7586694731       -1.4602492258
 H          4.9434696842        4.5749573320       -2.6967728704
 O         -0.9740182449        2.7217303271        0.9117297601
 H         -1.8561205773        2.7885116736        1.3167084692
 H         -0.9767603303        3.3589597036        0.1422430257
 O          0.4403438186       -2.4592594045       -4.1294837493
 H          0.7031696929       -3.2089924989       -4.6641997162
 H          1.0089136942       -2.4616996566       -3.3413442865
 O          3.6019649433       -3.8661892157        1.4310780262
 H          3.3326520040       -3.0751729367        1.9258069718
 H          3.9851917584       -3.5525785059        0.5943344322
 O         -0.5299536245       -0.2342142088        4.0275079019
 H         -1.2987021980        0.3768494096        4.0144519310
 H         -0.7775254004       -0.9526753440        4.6099656377
 O         -0.9841521393        4.2664070551       -1.1598043119
 H         -1.5391458222        3.7992019636       -1.8153211985
 H         -0.0978051305        4.3044075722       -1.5469384514
 O         -2.4101281205       -3.1039382026       -1.0965457542
 H         -1.4910357358       -3.3497889846       -0.8821069977
 H         -2.9778867246       -3.5935124777       -0.4779840928
 O         -4.8032068610       -0.9431957255       -2.4837925624
 H         -4.0991985846       -1.3006319633       -3.0339013536
 H         -4.8546177010        0.0010143602       -2.6891159996
 O         -0.0070639833       -3.3964111316        3.0975502014
 H          0.3548781975       -4.0519648823        2.4658694999
 H          0.1435280484       -3.7617749441        3.9714766102
 O         -4.0566448425       -4.0359230890        0.8510370501
 H         -4.6834769788       -3.3427170619        0.4971271979
 H         -4.5432734338       -4.8603761418        0.8345715445
 O         -2.3153612526        2.6616932693       -2.8958356646
 H         -3.2730217931        2.5376014621       -2.9612282430
 H         -1.9571384119        1.7744149880       -2.6814638731
 O          1.5076316920        2.4089582150        1.7111683197
 H          0.5695969149        2.6614200300        1.6064865135
 H          1.8064191909        2.1464830814        0.8115785996
 O         -0.0149780752        3.0716756053       -4.4089458516
 H          0.1692264435        2.1699694366       -4.7034140558
 H         -0.9186758017        3.0617790084       -4.0538503532
 O          4.6825151880       -2.8218185883       -0.9151248609
 H          5.5397814433       -3.1622187032       -1.1712551395
 H          4.8077462878       -1.8643883380       -0.7133921227
 O          0.5720831168        0.3363722246       -4.5295354123
 H          0.4588434335       -0.5818574312       -4.8048437042
 H          1.4294892648        0.3650611532       -4.0501516332
 O          1.3121614895       -5.1217711701        1.4627292251
 H          2.2165564442       -4.7003287243        1.4383663593
 H          1.4523890712       -6.0602927746        1.5892280278
 O         -2.8331449699       -3.0890681903        3.1198168192
 H         -3.2168261803       -3.5255173802        2.3368186891
 H         -1.8689479354       -3.1356989335        3.0270929284
 O         -2.2736007356       -1.9210481753       -3.4856311964
 H         -1.4418182260       -2.2013475694       -3.8928201078
 H         -2.3954150049       -2.4954986803       -2.7072147233
 O          2.0111264191        0.6115077906        3.6408672887
 H          1.8311958391        1.2545969039        2.9237700702
 H          1.1350953836        0.4194822436        4.0186183523
 O          2.2971798541        1.8352184375       -0.7864548135
 H          3.1901197034        2.1624913923       -0.5608521694
 H          1.9053598404        2.5490176155       -1.3514599694
 O          5.1541512685        1.1839735939       -2.6261947978
 H          4.3821468343        0.7841143930       -3.0590299296
 H          4.9802367121        2.1381619176       -2.6402283820
 O         -5.6136387114       -2.2283922720       -0.1884749606
 H         -5.8166665839       -1.4959286661        0.4115201018
 H         -5.3333047529       -1.8266908616       -1.0317897599
 O         -4.7751977338        1.3543567203       -0.0408357222
 H         -5.4201452055        0.8743559869        0.5035620526
 H         -4.1037500507        0.6755687739       -0.2747695613
 O          4.8040327052       -0.2056272863       -0.3928744326
 H          5.2937971840        0.2079586228        0.3383729530
 H          5.0087388637        0.3270324127       -1.2007301670
 O         -4.4626711065       -1.0866746845        3.7458343176
 H         -4.8781964817       -1.3487238325        4.5689582929
 H         -3.8370978511       -1.8157182115        3.5148937402
 O          0.1345691842       -3.5921840443       -0.4680232034
 H          0.8541085597       -3.3402411413       -1.0661595074
 H          0.4963920393       -4.2370153027        0.1580092761
 O          4.5346750315        3.0919371578        0.1630503498
 H          4.2055545025        3.5974100112        0.9262772086
 H          5.1814092484        2.4661282695        0.5358908999
 O          2.1742940587       -2.4128256369       -1.9058911353
 H          2.1035788526       -1.8152828979       -1.1105453395
 H          3.0516110815       -2.8139900015       -1.8050090666
 O          1.4918707136        3.7586398473       -2.3620237882
 H          0.9941327221        3.5185444909       -3.1856941007
 H          2.3782757893        4.0245561439       -2.6396832752
 O          2.2037663225       -1.7765135490        2.5248468781
 H          1.3652346683       -2.2059224176        2.7632790446
 H          2.2388509655       -0.9281672853        3.0264628053
 O         -3.5364209742        2.8028709572        1.8070735351
 H         -4.0213259167        2.3224447285        1.0901967597
 H         -3.9187220429        3.6789515397        1.8650816680
 O         -4.9798304330        1.8854133253       -2.6867679255
 H         -5.7928215714        2.2968562395       -2.9807508970
 H         -5.0091030122        1.8377477268       -1.7101077160
 O          4.5414651923        1.8163603025        3.6564338292
 H          3.7465585032        1.2908508329        3.8304248889
 H          4.2297876520        2.7035608518        3.4185044612
 O         -6.0971514673       -0.2560560692        1.7350066660
 H         -6.9834523806       -0.2623940655        2.0982624631
 H         -5.4897016763       -0.5384819899        2.4498692574
 O          3.4104302781        4.0853073093        2.4562532613
 H          2.6109165196        3.5452709963        2.2502671131
 H          3.1090907457        4.9360287549        2.7747739328
 O         -1.1474984274        0.2784617496       -2.5137750172
 H         -1.7089533240       -0.4771567733       -2.7993533004
 H         -0.4804737894        0.3729732193       -3.2322063548
 O         -2.8121427674        1.1506926086        3.9622219666
 H         -3.4642358209        0.4347181097        3.9016233175
 H         -3.0617096134        1.8078351943        3.2969371822
 O          2.2468323632       -0.7660561239        0.1041255959
 H          3.1568871774       -0.4237863706       -0.0215112229
 H          2.2297094134       -1.1851593632        0.9963736197
