  189
       -320.70064120
 O          2.7751074343       -3.5264754390       -1.2098294802
 H          2.8414851110       -3.3498280000       -2.1651016665
 H          1.8935527594       -3.9127138573       -1.0287653073
 O          1.6065054641        0.4018353891        2.6460436494
 H          0.8285863558       -0.1936484888        2.5694392723
 H          2.4150810439       -0.1394486569        2.5792122893
 O         -0.5616557386        4.7539165218       -0.1712805874
 H          0.3774328311        4.7137428882        0.1027446433
 H         -1.0467391653        5.0275662617        0.6237564093
 O          4.7875202811       -4.5172141510        0.3106522424
 H          4.0319627123       -4.3057992500       -0.2697878279
 H          4.4723781387       -4.3916733212        1.2184971703
 O         -0.2986175119       -3.7073998071       -3.1831540704
 H         -1.2599688317       -3.9029581399       -3.3466435323
 H         -0.2592708861       -2.7284764109       -3.1414305732
 O         -0.5207119362       -1.2093111425        2.6949321467
 H         -0.1328461841       -2.0451345225        2.3923570621
 H         -0.5947357703       -1.2680709069        3.6698620144
 O          1.0029523397        1.2512253127        5.1784990885
 H          1.2367116112        0.9953339071        4.2609179690
 H          0.6155496927        2.1287326122        5.1353556438
 O         -3.8091607692       -3.1464975632       -1.0021985817
 H         -3.7761970235       -2.1739409051       -1.1074914050
 H         -4.4927784408       -3.3175817262       -0.3278524967
 O          1.7752765163        3.0560726011        2.7103414191
 H          0.9988099406        3.3769744699        3.2205387450
 H          1.6313581168        2.0988565865        2.5784580777
 O          4.3250124874        2.2633978241        3.1079389626
 H          3.4985915765        2.7626409652        3.2312326459
 H          4.2016260977        1.8473933524        2.2250002313
 O          1.2574510874       -3.1296005947        1.8142408158
 H          2.1160388087       -3.5137229215        2.0607569620
 H          0.9471401886       -3.6517270917        1.0670498178
 O         -3.6437630496       -0.4539894434       -0.7915694720
 H         -3.3078880729       -0.4069964581        0.1339286490
 H         -4.4384265226        0.1043024197       -0.8131427673
 O          0.6514203051        3.2757329191       -2.2408704519
 H          0.1088237817        3.9783967041       -1.8641712350
 H          1.4934498304        3.6795128305       -2.4861132200
 O          0.2242390733        1.8724982674       -4.6690197824
 H          0.2380392136        2.3391168237       -3.8216207254
 H          1.0276109116        1.3327113193       -4.7056181953
 O          6.5518222830       -2.7395976555       -0.3134663056
 H          5.8767877049       -3.4343172069       -0.0469441585
 H          7.4053057270       -3.1665880460       -0.2445871729
 O         -1.8485876680        0.8380632750       -2.3071239720
 H         -2.4110517927        1.2149672602       -3.0116623079
 H         -2.4141965205        0.1973538011       -1.8186943546
 O         -0.6410627878        1.5145163272        1.4738103192
 H         -1.0557207116        1.4128069166        2.3491887641
 H         -1.2925251991        1.9602616529        0.9036405520
 O         -1.8262132112        0.4572210172       -5.6865164180
 H         -1.1100791164        1.0207823336       -5.3189535008
 H         -1.3772771660       -0.1519662401       -6.2824417135
 O         -0.4298248639        3.6965283675        4.0417716406
 H         -0.8741887072        4.3509652592        3.4829572915
 H         -1.0373856887        2.9318584662        4.0542785537
 O         -2.0420267623        5.0385047738        2.1782968335
 H         -2.6721950317        4.2904790518        2.1165390982
 H         -2.5590709853        5.8216059798        2.3673594689
 O          0.2684683359       -1.4069972638       -6.1399972996
 H          0.5805603858       -2.3202647099       -6.0034146929
 H          1.0606389868       -0.8616744094       -6.1115093238
 O         -2.0793367912        1.5927090887        3.7608720649
 H         -2.4358840169        0.8642115429        4.2943766002
 H         -2.8007246951        1.9206398858        3.1926726812
 O         -2.8807650669       -3.8600167405       -3.5100222288
 H         -3.2721544487       -3.8790932590       -2.6237796078
 H         -2.9973700885       -2.9352795444       -3.7980601797
 O          4.0147400939        1.5199676048        0.5718526195
 H          4.5989792830        0.7434699643        0.4741451882
 H          4.4555951435        2.2338845453        0.0706526796
 O         -6.1864130506        1.9957489508        1.7064529043
 H         -6.2945780299        1.1345697692        2.1953147589
 H         -6.9159027682        2.5537489468        1.9769291196
 O          4.2007221689        5.8394905938        1.2172337370
 H          4.8815665851        5.2018714504        1.4960897355
 H          4.6307102282        6.6875253786        1.1131966087
 O         -0.3208603079       -1.0934999846        5.3771458273
 H          0.4657002282       -1.6753534519        5.3307165039
 H          0.0600919974       -0.1966640443        5.4719984387
 O          5.6919764525        3.2452894769       -0.6467004446
 H          6.0649134649        3.5171762383        0.2071909910
 H          6.2707483085        2.5837151755       -1.0417137473
 O         -3.5931943087        1.9062613898       -4.1168878203
 H         -3.1223418865        1.6928676948       -4.9324851445
 H         -4.3446595929        1.2920922167       -4.0603409373
 O          3.5958324225       -1.1475859610       -0.4105626004
 H          3.2193130020       -2.0311304202       -0.5993982580
 H          4.2870381439       -1.0307943815       -1.0803890909
 O          6.5720002487        0.9055750453       -2.1334603851
 H          6.1977669532        0.0161772537       -2.3194318661
 H          7.2308588138        1.0599405655       -2.8113875461
 O          3.8727977312       -1.0645754482        2.1888519388
 H          4.7165287738       -0.6491678023        2.3782658832
 H          3.7939244171       -1.1043890793        1.2004018307
 O          3.2215173781       -2.6029453311       -3.7694633586
 H          2.9380065932       -1.6991765282       -4.0149954158
 H          2.7284082749       -3.1786176504       -4.3746247768
 O         -0.1729455865       -1.0427868279       -3.4791770710
 H         -0.8762636445       -0.4764951571       -3.1121759923
 H         -0.3394107650       -1.1274983700       -4.4365907213
 O          2.2245881051       -0.1063408577       -4.3128472538
 H          2.7706981494        0.4234783339       -3.7026342909
 H          1.4285765977       -0.4070213681       -3.8266703216
 O         -3.6259910036        2.8498551615        1.9003434705
 H         -4.5673116326        2.6015860174        1.8708424992
 H         -3.2626447375        2.6101471125        1.0328643484
 O         -2.9343180054       -0.4943550356        5.3771894819
 H         -2.0338702905       -0.8767466474        5.4232205975
 H         -3.2014927452       -0.3249984143        6.2810354123
 O         -5.5488486413       -3.1520853235        1.0599859614
 H         -5.2330262476       -2.8387548169        1.9136086821
 H         -6.1949210555       -2.5071347601        0.7413780626
 O         -6.6056720514       -0.3413574173        2.7817739983
 H         -6.9619311043       -0.7722628559        1.9914268125
 H         -5.8748101561       -0.8946655009        3.0972858659
 O          3.6839757395        1.3373340177       -2.5316344695
 H          3.4795897781        2.2753862678       -2.3589165806
 H          4.6423082331        1.2607210890       -2.4891148514
 O         -4.3659754977       -1.8591683083        3.4560651690
 H         -3.7009255750       -2.5837250579        3.3356421428
 H         -4.0400203388       -1.3895897172        4.2417600168
 O         -2.4428813000       -3.6009135399        3.0368418266
 H         -2.1204863618       -3.4434066418        2.1160015490
 H         -2.5908960272       -4.5426322603        3.1141811701
 O          3.7744293573       -3.6769069604        2.7416361252
 H          3.9084283584       -2.7083112399        2.6284720793
 H          3.7177247643       -3.8360531082        3.6860688978
 O         -5.8579023879        1.1769154428       -0.8722969640
 H         -6.0268828098        1.4819115339        0.0408714312
 H         -5.4073015813        1.9665403503       -1.2814819760
 O         -2.1779504564        2.6392370807       -0.4387898151
 H         -1.9213015477        1.9915407455       -1.1491796777
 H         -1.5806365203        3.4128621748       -0.4930331360
 O         -1.6789352813       -3.1769406706        0.5388413837
 H         -1.3567063936       -2.2665816964        0.3695916524
 H         -2.4626412212       -3.2790690636       -0.0528719127
 O         -5.6654275056        0.1672702730       -3.5215537344
 H         -6.5077651931        0.1604662044       -3.9769372023
 H         -5.8299296741        0.4392338858       -2.6065952822
 O         -2.9609615406       -0.2848892471        1.7611234477
 H         -2.0901265305       -0.6251933228        2.0321173836
 H         -3.5960689881       -0.7970754810        2.2906221376
 O          6.0686182308        3.9418790711        2.0072172726
 H          6.7933309236        4.1358445831        2.6019076023
 H          5.4684342181        3.3186077597        2.4930458685
 O          2.0288250071        4.4022615299        0.4942955644
 H          2.6654533671        5.0930366107        0.7411667922
 H          1.9432840995        3.8591302073        1.3180401244
 O          5.4484817451       -1.4948061902       -2.4446321697
 H          4.8250419825       -2.0000206683       -2.9885540626
 H          5.8828833529       -2.1163927216       -1.8306920511
 O          3.2927034810        3.9251884178       -1.8256648608
 H          2.8593340533        4.1016252568       -0.9646716939
 H          4.2319665478        4.0642035537       -1.6578280787
 O          0.3265406522       -4.4525133896       -0.6833883932
 H         -0.4525674073       -4.1045863042       -0.2022003495
 H          0.0761018133       -4.3691682079       -1.6248284452
 O         -3.1349916393       -1.1910116350       -3.9223832199
 H         -4.0450623367       -0.9019326281       -3.8088134875
 H         -2.7357767668       -0.6433299634       -4.6221827551
 O          3.6104745589        0.1375734197        4.8574966761
 H          3.9897642381        0.8365794754        4.3017871614
 H          2.9495808621        0.5705125452        5.4092742794
 O         -4.4707788346        3.1830874941       -1.8142061785
 H         -4.1956393546        3.0142701020       -2.7255413966
 H         -3.6575508421        3.1167825631       -1.2782155628
 O          1.2549059292       -3.8419883284       -5.2955564611
 H          0.6562003430       -3.8869837176       -4.5018354313
 H          1.1594179113       -4.6754560364       -5.7558493000
 O         -7.2051630374       -1.0861900704        0.1443835163
 H         -8.0353157914       -1.2569272951       -0.3011371931
 H         -6.7596490537       -0.3662167903       -0.3283746263
 O          2.0242544263       -2.1488903835        4.6076363767
 H          2.6644967116       -1.4174582426        4.6581580376
 H          1.8350961242       -2.2992181030        3.6753541283
 O          6.1478469736       -0.1502682471        0.5143622484
 H          6.5669807026        0.2796035280       -0.2386944171
 H          6.2582493829       -1.1044693471        0.3519462681
 O         -0.7840072707       -0.7851879441       -0.1104909418
 H         -0.6895081688       -0.0605175825        0.5343948599
 H         -0.0750604862       -0.5987507201       -0.7530303405
 O         -6.0374773621       -2.7965332113       -2.8182223420
 H         -5.7639306749       -3.2234935639       -3.6310500659
 H         -5.3146288258       -2.9499949804       -2.1923393889
 O          1.2863253865        0.2750957250       -1.5120473968
 H          2.1093431840        0.1408925984       -1.0251002911
 H          1.1053301614        1.2193593415       -1.4913337490
