  312
       -524.28906029
 H         -0.7794683521        0.9054746992        1.2848683681
 C         -0.8902218541       -0.1101277354        0.8987487129
 H         -1.0007821891       -0.8034012842        1.7289152289
 C          0.3413513936       -0.4736913764        0.0777131840
 H          0.0817818605       -1.2423389871       -0.6434922922
 H          1.1124185856       -0.8538667763        0.7370918426
 O         -2.0799419561       -0.2240205601        0.1395196530
 H         -1.9973913393        0.3909243868       -0.6215926189
 N          0.8606856452        0.7048786222       -0.6362182592
 H          1.3753363260        1.3029007926        0.0487056698
 H          0.0682688026        1.2295868460       -1.0553042799
 H          1.5102260688        0.4197346333       -1.4097521315
 O          5.8839942444       -1.5802473204        0.7987014582
 H          6.4955520924       -2.0501280849        0.1933852433
 H          5.2546557411       -1.0443516183        0.2738878510
 O          3.4299153123        2.2005615740       -1.2127560165
 H          3.8089391751        2.4157234769       -2.0881688055
 H          2.5546038399        2.6262867798       -1.2090594379
 O          2.6079111885        5.6028406317       -1.3768653121
 H          2.0108570248        4.8152713950       -1.3732953104
 H          2.7193066531        5.8666953907       -2.2899799268
 O          2.3555412872        1.7332271915        1.3793721113
 H          1.8159230008        1.3152517426        2.0803231876
 H          2.3297095794        2.6828667004        1.6082988550
 O          7.5600610081       -2.9393329320       -0.7084073230
 H          7.5079420351       -2.4836632610       -1.5858899165
 H          8.3671986913       -2.6391172470       -0.2746573149
 O         -3.2918927418        6.7195345251       -0.0239050496
 H         -2.5088452135        6.6899243642       -0.5850428790
 H         -3.9878249473        6.2618373650       -0.5153560569
 O         -9.3047729319       -2.1079311373       -0.3949268924
 H         -9.2711427421       -1.1258618243       -0.4582962357
 H        -10.2150074336       -2.3585433154       -0.5518520397
 O          0.5566972913        6.5903233961        0.2310896262
 H         -0.0986634333        6.2441428019       -0.3983023778
 H          1.4184926405        6.4656413323       -0.1896087537
 O          0.9733398033       -2.4723066727       -2.9109748227
 H          1.4785467739       -3.2326685628       -3.2631214019
 H          0.6164349885       -2.7713292603       -2.0634791329
 O         -0.4087785891       -1.3201842442        4.2348946172
 H         -0.4058254301       -2.2916842970        4.2371444420
 H         -1.3676146383       -1.0925341539        4.2509202148
 O          3.4583145522       -2.6026122082       -1.5777409679
 H          3.6466893087       -1.7453188005       -1.1499224210
 H          4.2131434365       -3.2006305839       -1.4268311124
 O          3.7765184099       -0.3200776701       -0.2462985329
 H          3.2735103405       -0.4405691019        0.5805877555
 H          3.6699417655        0.6059178447       -0.5337297885
 O          0.7452810439       -5.8078842779       -1.6477403171
 H          0.7827964365       -6.5583650374       -1.0545837817
 H          0.9160195921       -5.0059455349       -1.0931700695
 O         -0.6462320743       -0.9166187062       -4.3346952805
 H         -1.4246284043       -0.9278246287       -3.7353170941
 H          0.0316212389       -1.4265097429       -3.8496058122
 O          2.2650055766       -0.0862202990       -2.7854870752
 H          1.8934332234       -0.9802329432       -2.9151576833
 H          3.2414706118       -0.1844651717       -2.7901133213
 O          1.0591571437        3.4580823230       -1.2545531340
 H          0.4483572953        3.4911067955       -2.0144814766
 H          0.5088280207        3.4161352160       -0.4354633496
 O         -2.5981261178       -1.0486182410       -2.5465163415
 H         -3.0857268008       -0.2235941539       -2.3623090245
 H         -3.2703765807       -1.7166556884       -2.7443297925
 O          1.2251725314       -3.5103059886       -0.3696464344
 H          1.3101722281       -3.6162660020        0.5826463702
 H          2.1040463090       -3.2519527572       -0.7166090872
 O         -1.4716505441        1.6657431411       -1.6583622588
 H         -2.0738656246        2.3268157271       -1.2771770874
 H         -1.7185092921        1.5769302455       -2.6036469395
 O          1.7866900510        2.1996891984       -4.1691856857
 H          1.9140489189        1.3786016468       -3.6524094324
 H          2.6211593898        2.6810708601       -4.1037252139
 O         -6.4480903253       -2.7474352366        3.8549274671
 H         -6.2407208430       -1.7726928163        3.8654290623
 H         -6.8725967522       -2.9350281413        4.6926312081
 O         -3.5213687910        2.9399611470        2.3240155719
 H         -2.7047296825        2.7564427224        2.8474394768
 H         -4.2308461862        3.0506667521        2.9881349867
 O          1.6183268927       -2.8839687337       -5.8727219301
 H          1.6065147343       -2.1944578141       -6.5396736015
 H          0.7156123915       -3.2471478996       -5.8383224761
 O         -1.0720638091       -3.3475293712       -5.4890411018
 H         -1.0979744072       -3.9126707314       -4.6954983032
 H         -0.9726455787       -2.4285487676       -5.1716090351
 O          3.7640095978       -2.4047259961       -4.3174406247
 H          3.5540918796       -2.4110259379       -3.3627426012
 H          3.0057498564       -2.8112864173       -4.7797720707
 O          0.8093748022       -5.9145562939        1.3589902651
 H          1.6996384124       -5.8932845963        0.9722906946
 H          0.8051181146       -5.1993947949        2.0084168074
 O          2.4718446878       -4.7050753824       -3.3863067090
 H          3.2940032339       -4.7285312627       -2.8923139070
 H          1.8670235893       -5.3064815687       -2.9222159328
 O          6.2948000772        3.8609033686        3.9051689004
 H          6.8338802302        3.4760385131        3.1848738679
 H          6.8957555071        4.2944263347        4.5104749596
 O          0.7139639448        0.9434005239        3.3280826284
 H          0.4187547262        0.0407028248        3.5372438377
 H          1.0720644863        1.3271140380        4.1586119188
 O         -5.2917680334        2.9284078213        4.3350166103
 H         -4.7462975714        2.2314245702        4.7987085199
 H         -5.4243639893        3.6322297153        4.9693191242
 O         -5.5640345348        1.7225025582        0.1571643522
 H         -5.9441011234        2.2015233965        0.9210143402
 H         -5.7141775176        0.7686530213        0.3304126604
 O         -3.9373178423        0.2771428354        1.9768210403
 H         -3.8255093714        1.2448900338        2.0282528020
 H         -3.3704536429       -0.0182755514        1.2355772243
 O         -4.1894073043        1.0418350266       -1.9972363812
 H         -4.9423501206        0.4618848740       -2.2380163696
 H         -4.4051737067        1.3965917657       -1.1206568626
 O         -1.2765757014       -4.6956240147       -3.1059493295
 H         -1.3553564399       -3.9763720270       -2.4574840097
 H         -0.5474395439       -5.2442908365       -2.7732823050
 O          6.0892519246        1.2309480710       -0.9155269867
 H          5.7334522504        1.2614753969       -0.0040494897
 H          6.9886477893        0.8506815849       -0.9072950594
 O         -1.2510823318        5.3488409739       -1.4566404247
 H         -1.8443634242        4.6947702472       -1.0588008713
 H         -1.0134579301        5.0072953783       -2.3282424136
 O         -1.3870409157       -2.8959237203       -1.0117051286
 H         -1.8434416357       -2.1415064318       -1.4324353746
 H         -1.3993641600       -2.7237822590       -0.0591604059
 O          1.4283923209       -0.5948842038        6.0346317454
 H          0.6517973795       -0.8230515619        5.4791117413
 H          1.2936412938        0.3128212862        6.3295729984
 O          1.1710747044        0.3044613004       -6.0927239922
 H          1.3116862228        1.1289618691       -5.6022595688
 H          0.5202057416       -0.1972238195       -5.5825345892
 O          3.3147329997       -5.3135070707        0.3042757777
 H          4.0064226224       -5.3648211969       -0.3624345983
 H          3.6485320899       -4.6927210205        0.9724780685
 O         -3.8761324159       -3.6137219310        3.7518850815
 H         -3.8576531244       -4.2053825757        2.9752641209
 H         -4.8190386725       -3.3665712366        3.8297656141
 O         -8.0336405404        0.2535160972        2.0382556456
 H         -7.3267348706       -0.1347246460        1.4733331868
 H         -8.5345844207       -0.5428433158        2.3281505921
 O         -4.0663548372       -2.4828642129        0.5033557978
 H         -3.9557683259       -2.6705367919       -0.4388099607
 H         -3.1954445619       -2.5133121703        0.9099500231
 O         -3.5201745815        1.3434197996        5.4086112757
 H         -3.5639198719        0.4076932475        5.1585659884
 H         -2.7208829748        1.6848196248        4.9713518630
 O         -5.7296218324       -4.9302938647       -0.2467887361
 H         -5.1288656637       -4.7937120506        0.5049010642
 H         -5.2314040333       -5.4525175126       -0.8854514353
 O         -4.2835942321        0.1700151082       -4.8410161432
 H         -5.0413595172       -0.0122945638       -4.2693298983
 H         -3.9899117879       -0.7143140930       -5.1231192139
 O         -3.6836903184       -2.4912676414       -5.0710374108
 H         -2.8856385245       -2.9001235677       -5.4431950145
 H         -3.8981783618       -2.9764279276       -4.2654183790
 O          4.9652963041       -0.1964287968       -2.8405290959
 H          5.2692470141        0.3708502880       -2.0994924928
 H          5.1509909855        0.2986353917       -3.6603741658
 O          4.2891306090       -3.3318877922        1.9484835950
 H          4.4833640013       -3.2821589501        2.9012903161
 H          4.9893723429       -2.8056381252        1.5010672305
 O         -2.9903841237        3.4351442040       -0.2968523156
 H         -3.3460436104        3.1808411662        0.5696043967
 H         -3.7271889148        3.9402503736       -0.7282188865
 O          4.3580770642        3.1140712215       -3.5758902525
 H          4.7386144019        2.4873451163       -4.2183228178
 H          5.1321102909        3.5457508875       -3.1637543541
 O         -4.2280803137       -3.1981192431       -2.3192013497
 H         -5.1859487812       -3.1471613753       -2.2438569559
 H         -3.9781708784       -4.1319633280       -2.1502342924
 O         -6.1648650202       -0.5362542087       -2.8427706924
 H         -6.3677136128       -1.3651667538       -2.3892547480
 H         -7.0238651754       -0.1831825860       -3.1480878244
 O         -6.1481695197       -0.8584149498        0.5018681985
 H         -6.5193496372       -1.4310061730       -0.1950281526
 H         -5.3344243558       -1.3335189608        0.7666454365
 O         -4.8967790491        4.8451141654       -1.3756414265
 H         -5.7353903110        4.8219805325       -0.8583334950
 H         -5.0869366949        4.4455781124       -2.2364313600
 O         -0.0619325139        4.4649186597        4.9607870826
 H         -0.4472746893        5.1218787382        5.5404932945
 H          0.0285317717        4.8865488488        4.0812135549
 O         -3.4539470182       -5.7319901003       -1.8703449857
 H         -2.8957802678       -5.8359545404       -1.0829356567
 H         -2.8101373049       -5.6481195376       -2.5956381791
 O         -1.5796733777       -5.4658432693        0.1470723892
 H         -0.7544520924       -5.7338888191        0.5981618760
 H         -1.3880011529       -4.6026397785       -0.2515711590
 O         -1.1939206685       -3.9525083825        4.4697617100
 H         -2.1587607999       -3.9506879817        4.5450733643
 H         -0.8394304526       -4.4779136208        5.1860487507
 O          1.0222712556       -3.3544257088        2.5428872640
 H          1.4631355372       -2.5042399812        2.3440343537
 H          1.2615908851       -3.5217109590        3.4754572594
 O          4.5992327080        5.4686083261        2.3753426835
 H          5.2169713855        5.0000525701        2.9571705300
 H          4.7934431532        5.1636445184        1.4692976825
 O          5.0879289700        1.5123358079        1.5679731402
 H          5.2992973301        0.8621821319        2.2695093196
 H          4.1168335208        1.6044840282        1.5400215262
 O          8.7307657872        0.4643373375        2.6330641023
 H          9.4632751729        0.7466656104        3.1806192475
 H          8.3024017948        1.2983997932        2.2928725658
 O          3.7676577801       -0.4337752939       -6.2287448583
 H          2.8307914493       -0.1561193500       -6.2778781081
 H          3.7986035119       -1.1527475767       -5.5737646595
 O          5.3987946239       -4.4674772491       -1.5609707168
 H          6.1883831990       -4.1829540666       -1.0812303475
 H          5.6425188339       -4.4010537237       -2.5047213317
 O          5.9188589069       -3.8705516110       -4.1692666299
 H          5.9828211737       -4.4659701744       -4.9151155151
 H          5.0988400340       -3.3215096176       -4.3154597979
 O          9.4133203479       -1.2973904392        0.6837484231
 H         10.3519931646       -1.4291477361        0.8203671339
 H          9.0997717330       -0.7228901450        1.4157087485
 O          5.4120209545        1.1812019917       -5.1171201068
 H          4.7548120686        0.6194576005       -5.6346747547
 H          6.2016068009        1.2397679246       -5.6531245028
 O         -8.5483285618        0.5573691598       -3.4187224080
 H         -9.3678422255        0.2527279490       -3.0260242969
 H         -8.2986304218        1.3662886401       -2.9427165189
 O         -8.8148963842       -2.2314910320        2.4018424262
 H         -7.9875568916       -2.6274133273        2.7191585435
 H         -8.9053717463       -2.4495324525        1.4624998437
 O         -6.8494705069       -2.7605271884       -1.3108738672
 H         -6.5161089510       -3.5591314086       -0.8389277230
 H         -7.8037602407       -2.7229388126       -1.1366844834
 O          7.1693505176       -1.6987404686       -2.9995782499
 H          6.9711969753       -2.4510377677       -3.5774824108
 H          6.3151634310       -1.2071484306       -2.9380021721
 O         -5.2654859095        3.0184345264       -3.4519674955
 H         -5.2201905741        2.8522033724       -4.3940278922
 H         -4.7094457957        2.3256777623       -3.0283679140
 O          6.4474224068        3.6816221701       -1.9532168271
 H          6.3051582500        2.7509452910       -1.6752929270
 H          5.9546797332        4.1933856101       -1.2830501795
 O         -6.9507354210        2.7859537743        2.1746966738
 H         -7.5611488945        2.0398953209        2.2657165343
 H         -6.4636447922        2.8493443262        3.0133183584
 O          1.4769707326        2.1867393266        5.5821398896
 H          2.4014639657        2.3959263923        5.3673393644
 H          0.9879269518        3.0190610695        5.5093249427
 O         -0.4301072936        3.1556024551        0.8931897871
 H         -0.2669644947        3.8936321574        1.5170607021
 H         -1.3272354469        3.2814142815        0.5620387936
 O          3.8335560567        2.5260445447        4.2709336641
 H          3.3120668722        3.0505596752        3.6320375632
 H          4.7226196538        2.9065251591        4.2540687596
 O          4.6630404484       -2.5383840858        4.5068154116
 H          4.3769974815       -1.6061642476        4.3820019576
 H          5.5487086121       -2.4891528340        4.8654514235
 O         -1.4735419348        2.3813986193        3.8714856114
 H         -0.7299322562        1.8409369865        3.5278208138
 H         -1.0594856889        3.1402695674        4.3155800113
 O          8.5186861942        0.2305501028       -1.3831492437
 H          8.8933215291       -0.3411344788       -0.6886514836
 H          8.2919304461       -0.3425294350       -2.1274277841
 O         -2.0604231978        1.5374335130       -4.2514638507
 H         -2.9337618175        1.1358738009       -4.4598925024
 H         -1.4180364306        0.9057860493       -4.5979425686
 O         -3.7340019012       -5.3298779730        1.6674903532
 H         -2.8913255688       -5.3249374799        1.1500538755
 H         -3.8949985833       -6.2389033771        1.9200626716
 O          2.0180806928       -3.3211429399        5.0590974362
 H          2.9744226740       -3.2549732434        4.9257773886
 H          1.7870379548       -2.5608074634        5.6033738964
 O          2.6245492697       -1.2699834991        1.9849109574
 H          3.2429877040       -2.0343751946        1.9321992913
 H          2.8694521921       -0.7910363915        2.8066058516
 O          4.6514368838        4.3791895988       -0.0981086980
 H          3.9961342080        4.9748720941       -0.5071346743
 H          4.2805491412        3.4837591820       -0.2239738863
 O          7.5154901449        2.6400112627        1.8144286093
 H          7.9618995107        2.8792514687        0.9642975496
 H          6.6084627981        2.3555684659        1.5883826246
 O          8.6873365376        2.9821156835       -0.5295768974
 H          8.8564078754        2.1185326984       -0.9273235056
 H          8.0747288070        3.4378309650       -1.1355213890
 O         -7.3118721405        2.3698647551       -1.7410910180
 H         -6.6545181395        2.0846891217       -1.0595736197
 H         -6.7548510001        2.7050334895       -2.4666361448
 O          6.1200866000       -0.3834987452        3.1916402852
 H          6.0730972738       -0.9372124645        2.3912726834
 H          7.0451362431       -0.1150391495        3.2478385112
 O         -0.1210222358        5.3308758825        2.4189075624
 H          0.1979924566        5.9281943734        1.6971393850
 H         -1.0993436080        5.5142211313        2.4580673294
 O         -0.3980603606        3.6690637462       -3.5514047259
 H         -1.1337137692        3.1298157247       -3.8754972173
 H          0.3949962103        3.2580531033       -3.9434474401
 O          3.3930159553       -0.1709010855        4.2493967449
 H          2.7267127418       -0.3033202332        4.9577391409
 H          3.6652672752        0.7638165014        4.2704079125
 O          2.4024041879        4.0890051144        2.5614508561
 H          1.5899124008        4.6044381925        2.5916523788
 H          3.1546061241        4.7298104664        2.4740240178
 O         -9.1741175209        0.5746546148       -0.4243042223
 H         -8.5955803588        1.1943992672       -0.8861327900
 H         -8.9440475826        0.6500473495        0.5191776307
 O         -7.1797722889        4.5536049074       -0.0332674515
 H         -7.5756257148        3.9013140470       -0.6309891882
 H         -7.1577037907        4.1436019594        0.8416788286
 O         -5.9691505920       -0.1684090673        3.7967295285
 H         -5.2728307107       -0.0211106558        3.1368732729
 H         -6.7889108267        0.1562974057        3.3929898783
 O         -2.7089697848        5.6289202341        2.3639324314
 H         -3.1241085120        4.7601308206        2.2596708611
 H         -2.9522988467        6.1450769811        1.5666107485
 O         -1.5498790375       -2.9801676890        1.7691730958
 H         -0.6270156037       -3.1467345843        2.0435876511
 H         -2.0811935267       -3.3172420581        2.4952916728
 O         -3.0107183977       -1.0256308559        4.1017178861
 H         -3.3433769335       -1.9358353054        4.0317420274
 H         -3.2983046192       -0.5719753230        3.2804372254
