  189
       -320.71375498
 O         -0.6235809533       -1.5110907987        1.3111368282
 H          0.0363538351       -2.1876744752        1.5441077974
 H         -1.3710291622       -1.9697359727        0.9083093888
 O         -4.3083492972        3.7734807119        1.4421633937
 H         -3.4387268015        3.6942799430        1.8631627691
 H         -4.2167698517        4.3574612194        0.6750730032
 O         -3.0945268341       -2.4603942114       -0.1116467054
 H         -3.5350800510       -3.3200181651        0.0012772350
 H         -3.8354368028       -1.8266398624       -0.1466636276
 O         -2.7306722535        2.3737827724       -1.0277767256
 H         -3.6996941158        2.4894296053       -1.0470280548
 H         -2.5263551909        1.4193412414       -1.0593179482
 O         -0.6774093754        1.4083335403        0.8692055417
 H          0.0310726044        0.7973106540        1.1053512159
 H         -1.5058220379        0.8815583812        0.8941345968
 O          0.6854678533       -3.2475246948       -0.4693127514
 H         -0.0648836993       -3.5868435781       -0.9855212702
 H          0.6344110548       -2.2781309182       -0.6121193645
 O         -3.2643440506        1.1006846926        3.7199677638
 H         -2.4764656540        0.5361547369        3.7711636198
 H         -2.9487769801        1.9390765109        3.3383016164
 O         -2.1463574450       -5.7593126014       -0.5266407525
 H         -2.1034400336       -5.2664227938        0.3249986775
 H         -1.7795425585       -6.6274824517       -0.3628675499
 O         -5.7619314706       -2.0348618788        2.3005380758
 H         -6.1085969511       -1.2707682675        2.7820447473
 H         -4.7978880364       -2.0221151236        2.5021965143
 O         -0.8759908656       -0.3374847119        3.6686282936
 H         -0.8265399612       -0.7283197383        2.7598038546
 H         -1.1498785424       -1.0656387011        4.2511062888
 O         -1.9983005012       -0.1722791401       -1.5178008627
 H         -2.3178333873       -0.5233220258       -0.6723708361
 H         -2.5433838767       -0.5638516088       -2.2319127518
 O         -4.9234463756       -4.7829324859        2.1938013996
 H         -5.0926740064       -4.9229920225        1.2508317277
 H         -5.4129455051       -3.9807863615        2.4193889093
 O         -1.7095963023       -2.5504688116        5.0529504536
 H         -1.6694455736       -2.6316831640        6.0054885008
 H         -1.2315674933       -3.3190654931        4.6717248303
 O          3.7149730004        2.9763558791       -0.2635065700
 H          3.0795142209        3.6920369055       -0.1366020343
 H          3.2431553163        2.2765510543       -0.7722062895
 O         -0.4406943341        0.8151953373       -3.9201246250
 H         -0.5991582553       -0.1375671223       -4.0289131584
 H          0.3125285757        1.0548062251       -4.4900045881
 O          2.7703562834        1.4727298586        5.0032002160
 H          3.2615570110        2.2949590592        4.8680872301
 H          1.8376779597        1.7267889172        4.8608558877
 O          3.6163877606        3.7833879321        3.6532482498
 H          3.3765299573        4.6932648856        3.8272072567
 H          2.9367741781        3.4204243553        3.0430649542
 O         -1.3471492974        4.4704623809       -0.0697244217
 H         -1.8077416081        3.6316120634       -0.2718547007
 H         -1.9847605687        5.0357637880        0.3699335585
 O         -4.6888057985        1.3727845348       -3.9527235105
 H         -3.8333873532        1.8883361998       -3.9161723288
 H         -5.1138410654        1.6201153719       -4.7738891744
 O          0.1177336911        2.1187346396       -1.6173870148
 H         -0.2477982182        1.9084356493       -0.7334680490
 H         -0.3079639227        1.5487540593       -2.2801182820
 O         -3.1520275112       -2.0052725157        2.7742341127
 H         -2.8880842587       -2.1242614686        3.6957442364
 H         -2.7993517105       -2.7793282984        2.2888444779
 O         -4.6790464242       -4.6573249415       -0.5552329301
 H         -4.9869275800       -4.1736754769       -1.3374215329
 H         -3.9663457357       -5.2518097959       -0.8269654626
 O          6.7225333636        1.2574488552       -0.1022047434
 H          6.4504086739        1.7554795924        0.6820576409
 H          6.7255015496        1.8774329712       -0.8358628452
 O          3.5702898314       -0.2063979408       -4.9912757760
 H          2.9888434856       -0.8478228584       -4.5499916267
 H          4.2807291488        0.0029680837       -4.3601990950
 O          7.4153729595       -1.3262155644        0.4663270230
 H          7.2928389687       -0.3728404621        0.3179181388
 H          6.9076364133       -1.5499669298        1.2650380111
 O          0.2650970941        2.1738712367        4.0823274744
 H          0.7687586715        2.3541402258        3.2624605529
 H         -0.1710311086        1.3184909726        3.9562341817
 O         -4.0083636399        5.1199647454       -0.9860556211
 H         -4.6307037426        4.5140027889       -1.4062840385
 H         -3.4454482891        5.4728826496       -1.6859388424
 O         -5.8267253743        0.5074343116        3.3987306143
 H         -6.3083185360        1.0083222110        4.0568286000
 H         -4.8694481121        0.6717866991        3.5782388826
 O          0.6140870441       -0.7511543626       -1.4347136688
 H          0.9609427399       -0.9329552114       -2.3275174608
 H         -0.3360619876       -0.5341342864       -1.5203266002
 O          4.9621997631       -4.4430307979       -0.6344311940
 H          5.4998428995       -3.6913466205       -0.9877564489
 H          5.5160793458       -5.2229520596       -0.6608470005
 O         -0.4303455449       -4.5727494996        3.8109225817
 H          0.2511219777       -4.0333483025        3.3106114368
 H          0.0487000962       -5.2801449091        4.2423542557
 O         -5.4696623153       -1.1103312130       -0.1641694227
 H         -5.4849131180       -0.1587811925        0.0143067676
 H         -5.7130506157       -1.5343288507        0.6945676172
 O          1.2798327641       -3.0602033237        2.5854814696
 H          1.5376206899       -2.3891001566        3.2487817369
 H          2.1206475852       -3.4327114849        2.2549518769
 O          3.1353470041        3.2282426127       -3.8737165055
 H          2.6798137367        2.8031812716       -4.6188289480
 H          2.4921799084        3.8634884420       -3.5087595487
 O         -2.3183156425       -4.4195217303        1.8218438955
 H         -3.2280878923       -4.6946830034        2.0842717986
 H         -1.7094582923       -4.6491686571        2.5420910833
 O          2.5980438019        1.3590718697       -2.0417417036
 H          2.8822441751        1.9273107933       -2.7896478244
 H          1.6502909317        1.5724445032       -1.8851036428
 O         -1.5275378894       -3.5436032799       -1.9959633329
 H         -2.0987572974       -3.0143127004       -1.3997973585
 H         -1.7511421950       -4.4638107671       -1.8006025823
 O          3.7588437664       -3.7780662837        1.8173457919
 H          4.4446385113       -3.1915687382        2.1753201660
 H          4.0969573320       -4.0910203045        0.9658128424
 O          5.7775767352       -2.0120295670        2.6262742813
 H          5.3310944254       -1.1762993318        2.8972113823
 H          6.2779883616       -2.3036811410        3.3896155674
 O          2.8250770106       -3.3716078960       -1.9255110665
 H          2.0409824980       -3.4648424039       -1.3206027379
 H          3.5138133987       -3.9527050787       -1.5693521184
 O          1.6931456491       -1.1128631101        4.3854048013
 H          2.2826275046       -0.4258621086        4.7143877029
 H          0.8421357656       -0.6768792444        4.2179199134
 O         -3.6057544949       -1.0878457459       -3.4646403759
 H         -4.0793316899       -0.2685991710       -3.6955799074
 H         -4.2684216097       -1.7242393053       -3.1491998576
 O          1.6987428599        1.5429299674       -5.4875246734
 H          1.5853157708        1.6076078861       -6.4354631204
 H          2.4286964517        0.8806848893       -5.3364440760
 O          1.0460150091        4.4404830845       -2.6491998160
 H          0.2796954128        4.9882584976       -2.8909553717
 H          0.6584330724        3.5946231738       -2.3464576727
 O         -1.5790047389        5.2198575089       -2.7233025579
 H         -1.4621477511        4.9633211105       -1.7886456021
 H         -1.8915999712        4.4349331743       -3.1970415223
 O         -1.0483219427       -1.8936052547       -4.1091600906
 H         -1.1181770252       -2.5343009521       -3.3778218408
 H         -1.9691237431       -1.6525641967       -4.2786788564
 O          4.6006699453        0.2571097592        3.2810816423
 H          4.0155535101        0.6093376048        3.9691787705
 H          4.9141176823        1.0292981914        2.7714363570
 O         -5.3456622747        2.6773637609       -1.6211973717
 H         -5.3338857584        2.1320846072       -2.4261242677
 H         -5.8073835174        2.1959785380       -0.9262320044
 O          1.8244447785        2.6854558011        1.9599636990
 H          1.6040504806        3.3453458777        1.2785696991
 H          2.0109942455        1.8533998112        1.4905884582
 O         -2.9915092442        0.0996261200        0.9910493539
 H         -3.0357905474       -0.5324787175        1.7254870441
 H         -3.7970630602        0.6487652462        1.0315544092
 O          1.6860448605       -1.7152060681       -3.7210246329
 H          2.0737701247       -2.5005164562       -3.3010576532
 H          0.8636745273       -1.9806311223       -4.1523333078
 O          6.3138327300       -2.3881333072       -1.6297656962
 H          6.7682407260       -1.9801258147       -0.8369524417
 H          7.0093163131       -2.6057464629       -2.2497236756
 O          5.2675633563        2.4852119057        1.8891397532
 H          4.6509936633        2.6575863765        1.1494439062
 H          4.9935424508        3.0890573346        2.5954735210
 O          5.4532592546        2.8020801582       -2.3539464803
 H          4.8998987915        3.1509323074       -3.0667281624
 H          4.9391197494        2.9699725883       -1.5404716342
 O          5.5480233374        0.2568042080       -3.1079019538
 H          6.4471339082        0.1096608280       -3.3992335293
 H          5.5119471855        1.1953857719       -2.7951016356
 O         -5.3519873763        1.4366131413        0.8961134299
 H         -5.7248000965        1.1476004246        1.7494663916
 H         -5.0013500886        2.3476359707        1.0795737180
 O         -5.5576342174       -2.6823700819       -2.3236810710
 H         -5.6186626211       -2.0928331299       -1.5406586090
 H         -6.4427946351       -2.7610503484       -2.6800993485
 O         -2.4175776464        2.6525075989       -3.6404438454
 H         -2.4602059069        2.6045420743       -2.6541749710
 H         -1.7097479041        2.0315205110       -3.8946128510
 O          1.3811756427        4.5646029892        0.0407350960
 H          0.4219257362        4.5935011907        0.1946271270
 H          1.4454395567        4.6942937985       -0.9246203218
 O         -1.8544648371        3.1703521632        2.5777420625
 H         -1.2321747581        3.2096640776        3.3182374767
 H         -1.3861843641        2.6655498599        1.8824721689
 O          1.8913217024        0.2727341013        0.8088997236
 H          1.4986994498       -0.0328336377       -0.0283379576
 H          2.7768700756       -0.1179576520        0.7669466449
 O          4.0175970165       -0.6569317125       -0.5741985434
 H          4.6495984420       -1.2266376320       -1.0167603086
 H          3.6406498819       -0.0977571449       -1.2645701785
 O          4.7057409263       -2.7128415368       -4.0021286346
 H          4.0668013631       -2.9689856847       -3.3257770097
 H          5.0520527384       -1.8738765183       -3.6835907510
