  311
       -524.05474176
 H          3.2572188193        1.1234037482       -0.2245832704
 C          2.4294558128        0.4159470922       -0.1400594933
 H          1.6440215190        0.6972805513       -0.8448813817
 C          1.8985988611        0.4461897086        1.2925471486
 H          1.5805737769        1.4653327371        1.5127576330
 H          2.6975986364        0.1750677225        1.9828292042
 N          0.7663789136       -0.4532172925        1.5222704976
 H          1.0947079817       -1.4170249383        1.4226130164
 H          0.0973743659       -0.3337020151        0.7594869766
 O          2.8690611386       -0.8747702256       -0.5440382514
 H          3.4956194285       -1.2323271066        0.1425269251
 O          2.2144826718        3.7026124843       -0.1844804507
 H          1.3642647358        3.4028261192        0.1902432585
 H          2.9032942863        3.2410267314        0.3381062794
 O         -0.9216174610       -3.4357946929        0.1714714933
 H         -1.6497162115       -3.0715166372       -0.3605496200
 H         -1.0871905440       -3.1174641937        1.0783286233
 O          3.3284020758        4.0737269288       -2.6024880026
 H          2.7037470331        4.7061385065       -3.0177539663
 H          3.0001363982        3.9623097809       -1.6919974916
 O          8.8949036403        1.1614180528       -1.7426882749
 H          9.1113632594        2.0276815886       -2.0909188597
 H          7.9466315098        1.2227387047       -1.4198155274
 O         -7.4429685220        1.3721528857        3.4493724897
 H         -7.4688855420        2.3268866978        3.5367675934
 H         -6.7014992237        1.1968219828        2.8042933109
 O         -1.3837133088       -0.9883367852       -5.5986700346
 H         -2.3332618544       -1.2034781539       -5.5198460781
 H         -0.9104640992       -1.7986602706       -5.3617304732
 O          9.6626297171       -1.5379513564       -1.7957921060
 H          9.5602768299       -1.6798691349       -2.7402995236
 H          9.6270765318       -0.5785755447       -1.6656159144
 O         -1.8539969685        2.0910082259       -1.0928908658
 H         -1.0552145519        2.3131551900       -1.6202615901
 H         -2.5225166585        2.7486952438       -1.3154148545
 O          2.4612206582       -1.6610727115        5.7357577784
 H          1.6547950039       -1.7003600811        5.1564943957
 H          2.3369062212       -2.3190108670        6.4203744039
 O          1.7342636204        1.0372484245        6.1036137893
 H          0.7779862018        0.8944197742        6.1784510302
 H          2.1203663456        0.1495538785        6.1314042210
 O         -3.0834534513       -1.0083441341        6.0388959386
 H         -3.9228910324       -0.5717805445        5.8489541336
 H         -3.1272729424       -1.8688123511        5.5745010136
 O         -0.1856396916        3.0374663323        0.7577440458
 H         -0.9079250661        2.5207523487        0.3569998660
 H         -0.5387245659        3.4979695701        1.5481845091
 O          2.8698686212        5.8731071667        1.3140420569
 H          2.5931274442        5.1734967253        0.6849111337
 H          3.7986508934        6.0318209932        1.1096373921
 O         -1.6803034845       -2.2801852592        2.4925841220
 H         -0.9755780817       -1.8661782257        3.0129700215
 H         -2.2100607490       -1.5898609997        2.0412869343
 O         -2.2886185425       -5.1543876347        2.4388164741
 H         -2.8066419799       -4.4760241280        1.9521480453
 H         -2.4891867155       -5.0060264592        3.3668943988
 O          5.7492017846        0.7798773565        1.5900649967
 H          6.2072573270        1.0125438157        0.7588544908
 H          6.2980636132        1.0790666045        2.3384043319
 O          0.3858168703       -1.4557308362        4.1318904263
 H         -0.0879812310       -0.7957594740        4.7022492566
 H          0.7418345173       -0.9702127151        3.3635733352
 O          3.3977312378       -3.9149379745       -0.5849964279
 H          4.2884621075       -3.9830062122       -0.1997908642
 H          3.5183835540       -3.6155816259       -1.5091209120
 O         -3.0036458733       -2.8054155383       -1.4324259015
 H         -2.3397176740       -2.7498919273       -2.1757538596
 H         -3.6943659981       -3.4329820514       -1.7496007357
 O         -3.1290659390       -6.9892756640        0.5749244050
 H         -2.8111614447       -6.5469016999        1.3807228711
 H         -2.4898175320       -6.7287472105       -0.1129041693
 O          4.6320106674       -1.6639168138        1.2495203793
 H          4.2924333778       -1.9690885874        2.0947209841
 H          5.0921774369       -0.8201907753        1.4223300604
 O         -0.8677885271        1.1167463051        3.0113593861
 H         -0.3204377240        0.5517144798        2.4295947764
 H         -1.5893859562        1.4871306993        2.4641011531
 O         -0.8987723201        0.3722582188        5.5398322518
 H         -1.7163896582       -0.1023370597        5.8229151021
 H         -1.0998891796        0.7757240180        4.6709746870
 O         -5.2738913632       -1.8253732657        2.7135524061
 H         -4.7398735485       -2.3612144335        2.0906118448
 H         -6.1921117951       -2.1816163079        2.6383142480
 O          6.4445041759        1.3985882050       -0.9320975931
 H          6.2457560302        2.3249893154       -1.2042002874
 H          5.8138870429        0.8366272398       -1.4374785540
 O         -5.4299173237       -0.0560925783        4.8062870117
 H         -6.3123666183        0.3127005972        4.6657833478
 H         -5.3136770676       -0.7199761632        4.1034894561
 O          1.0232048902        2.7689057504        3.9840462472
 H          1.3036481976        2.2363627227        4.7389335885
 H          0.2955438052        2.2767909519        3.5617325312
 O         -8.3515024204       -0.4420961872       -2.4159540201
 H         -7.9795752704        0.3858001970       -2.7805762429
 H         -7.7211712886       -1.1256850579       -2.7075688398
 O          4.6650876691       -0.0127839378       -2.3117213295
 H          3.9719632643       -0.4139297352       -1.7489715550
 H          5.1713062382       -0.7655495286       -2.6927291858
 O         -3.3786259864       -3.1550226039        4.3847057285
 H         -2.7288972285       -2.8885530346        3.7017184775
 H         -4.2332747817       -2.8879497219        4.0211514164
 O         -7.7200934118       -2.7101494837        2.3192748508
 H         -7.6602553534       -3.0640795235        1.4107175161
 H         -8.2917350266       -1.9286039420        2.2774603857
 O          3.6098260312        1.7771994819       -3.9473554626
 H          3.5147722623        2.6325142856       -3.4812496833
 H          4.0480743001        1.1481483395       -3.3319236527
 O         -2.5972884908        6.9778371085        0.5598895353
 H         -2.5834913484        6.9894575519       -0.4065207623
 H         -1.6821406351        7.0571725978        0.8593733591
 O         -1.2420809374       -2.6142817982       -3.3127872512
 H         -1.2240617218       -3.5477219843       -3.5956552954
 H         -0.3907970347       -2.4561117959       -2.8720382656
 O          3.9400081376       -0.2707825496        3.8037959381
 H          4.0551257368        0.6636809281        4.0605169058
 H          3.4949119001       -0.6813956160        4.5528733213
 O          1.5432089080       -4.9706688293       -3.3693243591
 H          1.4216715483       -5.2784845129       -2.4596829311
 H          2.4091281982       -4.5357837645       -3.3645272625
 O          5.5778866861        4.8445504444        0.6067488489
 H          4.9921139234        4.0956211691        0.8471134208
 H          6.3963676879        4.6290188384        1.0827197791
 O         -3.5854311268       -0.3729748392       -2.2832476077
 H         -2.7187316722        0.0030258476       -2.5274420631
 H         -3.4016788807       -1.2015605842       -1.7922764510
 O         -3.5926639825        4.5456972510        0.9139674491
 H         -3.7733737787        4.3291111891       -0.0189124874
 H         -3.3069635134        5.4873782284        0.8892075424
 O         -4.1495141735        2.1862207672        3.9960466398
 H         -4.8501960922        2.7483895489        3.6114481646
 H         -4.5805020989        1.3730986347        4.3274284766
 O          0.4916138924       -3.3788729032       -5.3738306027
 H          0.7965949122       -3.9358587680       -4.6316319244
 H          0.4960872057       -3.9283198200       -6.1567792118
 O          5.9844596302       -4.1851480749        0.3012373650
 H          6.4355151207       -3.3646829519       -0.0022476602
 H          6.4781770539       -4.9245606591       -0.0529009079
 O          1.7896897095       -3.0921922587        1.3711454714
 H          2.3767442352       -3.1571853734        2.1414430140
 H          2.3520927129       -3.3137989643        0.6024156308
 O          4.1874464603        2.1635085897        4.9647336324
 H          3.4796046095        2.0084557674        5.6017671374
 H          3.9546137458        2.9895625590        4.5080566039
 O         -7.5630036437        0.1636976820        0.0041902693
 H         -7.9617792775       -0.0620915771       -0.8769150241
 H         -8.1952945531       -0.1011981663        0.6851090201
 O          3.1749300606        4.1831908362        3.4523844392
 H          2.2847429499        3.8012054476        3.6029012071
 H          3.0504851520        4.9525474215        2.8677215135
 O         -4.9627469025        1.3288781627       -0.8023670743
 H         -4.5120479079        2.1735003325       -0.8536914590
 H         -4.4021571752        0.6836584636       -1.2934107859
 O         -3.9366053317       -1.4993443383       -4.7383268907
 H         -3.7139798884       -1.1858310640       -3.8387377808
 H         -3.8154879636       -2.4732538906       -4.7488589143
 O         -9.1327831733       -0.2928826708        2.2350267721
 H         -8.5676274732        0.3247864536        2.7555530959
 H         -9.9971870898       -0.2952979391        2.6446569009
 O          6.7635075427        1.5435249167        4.0093802602
 H          6.9690081618        0.6498529168        4.3050439485
 H          5.9660733089        1.8171453821        4.4851329517
 O         -1.3403161055        0.5124426934       -3.3885135567
 H         -0.3951935762        0.6279826440       -3.1863437416
 H         -1.3618161047       -0.0692113142       -4.1816984794
 O         -5.7892130230        3.7316282842        2.4720244156
 H         -6.3246646486        3.3473000429        1.7576390474
 H         -5.0588932348        4.1759920651        2.0147156416
 O         -3.1023006709       -0.6376016703        0.8913167838
 H         -2.3829711736       -0.6707049419        0.2308958335
 H         -3.1717066723        0.3034812806        1.1364021736
 O         -2.9472856404        1.9691254773        1.6554605331
 H         -3.4889103325        1.9331886927        2.4792454621
 H         -3.1023837094        2.8562123480        1.3018673415
 O          0.7996472543       -2.2868430664       -1.6122475213
 H          1.6152643952       -1.8624681861       -1.2965939915
 H          0.4700913867       -2.8392569938       -0.8825394961
 O         -0.2373762965        5.1880191308       -0.9471147430
 H         -0.2877925312        4.3143616547       -0.5110604428
 H         -0.0423882894        5.8013586797       -0.2046490196
 O         -3.8380398064        3.9114356486       -1.7526243500
 H         -4.8271897955        4.0334351621       -1.8718471218
 H         -3.4238120354        4.7661288961       -1.9900397472
 O          0.3969242194        2.6365781304       -2.3225596104
 H          1.1158043801        3.1225886343       -1.9121859485
 H          0.2291872111        3.0228077793       -3.2068986132
 O          0.4073496984        1.1954154137       -5.8287503499
 H         -0.2813560932        0.5662906890       -6.0776707020
 H          0.7050730907        0.9071199594       -4.9361519698
 O          3.3192678246       -3.3702257994        3.6405028934
 H          2.5623975384       -3.9230370429        3.9532692120
 H          3.4114163937       -2.6941754213        4.3225773165
 O         -2.3689407410        6.1132503631       -2.1540248876
 H         -2.1330425902        6.4412460666       -3.0216508873
 H         -1.5409617657        5.7451316703       -1.7511098967
 O         -6.6859148857        1.6011005117       -2.9337846429
 H         -6.1334253875        1.3812205695       -2.1578357218
 H         -6.1266414629        1.4325279388       -3.7231241007
 O          0.4247989979       -5.3476925445        1.9341448060
 H         -0.5448729429       -5.3035930903        1.9966843798
 H          0.7329654566       -4.4657121814        1.6340328347
 O          6.4316839836        2.1957293683       -4.1532062241
 H          6.4689668130        2.8550922984       -3.4490604344
 H          5.4964264543        2.1066837289       -4.3807778046
 O         -1.2482233656        4.5061510146        2.6925209816
 H         -1.3196526759        4.1372334409        3.6004470920
 H         -2.1532591768        4.6352597002        2.3880383736
 O         -4.9791337180        1.1388006479       -4.9337309160
 H         -4.1986621793        1.7018600749       -4.7910258423
 H         -4.6552486759        0.2420899045       -5.0807985805
 O          5.9432844323        3.8452122947       -1.8396423980
 H          5.0614749614        4.0110462097       -2.2154284762
 H          5.9398180647        4.3454141652       -0.9907996524
 O         -3.6340886155       -4.1681965570       -4.6349243489
 H         -4.1917896079       -4.4283771477       -3.8866990789
 H         -2.8038866244       -4.6445304327       -4.5103400326
 O          1.1878147129        5.4912805898       -3.3301520869
 H          0.7077437182        5.4430671156       -2.4862507381
 H          0.6727871992        4.9850982094       -3.9744040752
 O          7.8785065310       -0.1409862333       -3.9847870397
 H          8.3420903812        0.2433234724       -3.2224859385
 H          7.3201014029        0.5908111913       -4.2980253243
 O          1.3373933438        0.3660863353       -3.4132424877
 H          1.6916964020       -0.5011963262       -3.7003592933
 H          2.0859964317        0.9843161831       -3.4945641614
 O         -6.4094492813        4.0465914346       -1.8802506564
 H         -6.6432587405        3.3014239727       -2.4718436521
 H         -6.7239106200        3.7586590981       -1.0051033781
 O         -7.3833506309        2.8020691464        0.3916247675
 H         -8.3151770942        3.0117010274        0.4505987319
 H         -7.3268729181        1.8327092460        0.2074350880
 O         -1.9055745138        3.3523181613        5.0010896722
 H         -2.7468214086        2.9355736760        4.7377999073
 H         -1.4088177094        2.6962559189        5.4941035573
 O          7.4879181416        3.4446240990        1.9622368565
 H          8.1680637673        2.8592879239        1.5815041670
 H          7.3098618809        3.0783827159        2.8340048448
 O         -1.2205927408       -5.8195434802       -1.0172317587
 H         -1.1659764997       -4.9737300615       -0.5198186704
 H         -0.3181315473       -6.1663507178       -0.9684182656
 O          0.9972653154       -4.3726089415        4.3828039605
 H          0.4617069622       -3.5745773209        4.3076327308
 H          0.7731739896       -4.9191454591        3.5993566712
 O          6.4570047788       -1.3015854666        3.8433551821
 H          6.3575177208       -2.2639570861        3.6646892633
 H          5.5570404354       -0.9254470697        3.7587339054
 O         -5.2962635193       -5.6151452570        0.1185493994
 H         -4.5265819951       -6.2372459921        0.2533598452
 H         -6.0786743666       -6.0199961374        0.4893444548
 O         -7.2684058691       -3.3609270910       -0.2855975179
 H         -6.4923832867       -2.7643175658       -0.3117268057
 H         -7.8664975516       -3.0482785484       -0.9658292465
 O         -6.1598059069       -1.9924703032       -2.9157627550
 H         -5.7063485708       -1.6224855067       -2.1326560650
 H         -5.6408297814       -1.7335590379       -3.6898350797
 O         -3.9641313350       -3.5227401669        1.0975417894
 H         -3.6285063224       -3.1093381787        0.2902130913
 H         -4.5859726572       -4.2169146080        0.7986853085
 O          4.0530957192        2.7653947375        1.3973525921
 H          3.8120685006        3.1563625164        2.2636599358
 H          4.6329058322        1.9854585313        1.5511899951
 O          1.5035032053       -5.8792652815       -0.6013459697
 H          1.2112236038       -5.9250674889        0.3246270455
 H          2.2545314276       -5.2568442060       -0.5849214327
 O         -4.9812648711       -4.3600932013       -2.2552630260
 H         -5.6584188071       -3.6856257701       -2.4425670522
 H         -5.2639797527       -4.8573241506       -1.4669328573
 O         -2.8166271900        2.6403056303       -4.0695376366
 H         -2.2982643314        1.8659504237       -3.7547282670
 H         -3.2343512012        3.0420337482       -3.2923961846
 O         -1.0234923170       -0.5045042905       -0.7129330178
 H         -0.3989792167       -1.0210877903       -1.2568642839
 H         -1.1832040617        0.3533002498       -1.1249212306
 O          7.3456764992       -2.0459522593       -0.5306848212
 H          8.2434723813       -2.0113504012       -0.9185461181
 H          7.4105891594       -1.5270050127        0.2943419018
 O          0.1193918175        6.4842733451        1.3461639283
 H          1.0770739666        6.5126001468        1.4819774148
 H         -0.2330487673        5.8326203433        1.9807015514
 O          3.0130163410        0.3933462425       -6.3013569253
 H          2.1169482989        0.7407674903       -6.4458014836
 H          3.3982190942        0.9771688164       -5.6316126941
 O         -0.3470586021        3.5845337608       -4.7195711476
 H         -1.3048575844        3.4173973470       -4.6321299447
 H         -0.0208589553        2.8712687106       -5.2999650630
 O          9.1720624604        1.4922784076        1.0679389328
 H          9.2729493697        1.3752537898        0.1151908462
 H          8.7689460278        0.6699001998        1.3935712778
 O          3.8264853340       -3.3291986849       -3.1637448931
 H          4.7541425670       -3.0562187827       -3.2176359045
 H          3.3367194366       -2.6550254855       -3.6782796541
 O         -1.2608912430       -5.2994917275       -3.6433855702
 H         -0.3469731508       -5.5425774763       -3.8208105098
 H         -1.4074769403       -5.5351211754       -2.7000533192
 O         -5.4111810486       -1.4268354889       -0.3630996409
 H         -6.0908601665       -0.7545721211       -0.1637455655
 H         -4.6006871952       -1.1685206866        0.1169660241
 O          2.4550859742       -1.6364944028       -4.7010547544
 H          1.7460000799       -2.1703073254       -5.0970995401
 H          2.7729286279       -1.0044964778       -5.3898561835
 O         -5.4600402467        0.7767415819        1.8795755123
 H         -5.3210683918       -0.1755687144        2.0294012539
 H         -5.3697585171        0.9626477289        0.9307592594
 O          6.2355079509       -2.0035121033       -3.0172896303
 H          6.5859059938       -2.0715855002       -2.1110163694
 H          6.8710724012       -1.4342741927       -3.5065498022
 O          8.0826461620       -0.9297571178        1.8163523233
 H          8.8288380070       -1.4772525059        2.0616245369
 H          7.4341794142       -1.0006615991        2.5659924364
 O          5.9759857732       -3.8192201252        3.0710625030
 H          6.0012505380       -3.9271268650        2.1053544984
 H          5.0389894632       -3.8962792419        3.3077599300
