  101
       -167.54481097
 H          2.5945792966       -0.6784771572        0.4529813142
 C          2.5352500711        0.3966097645        0.6208921739
 H          2.8097109099        0.6046300050        1.6564306291
 C          1.1143650116        0.8916389185        0.3738337327
 H          1.0973752257        1.9825528740        0.4587588340
 H          0.4716654778        0.4753472770        1.1477555089
 N          0.6301297313        0.4406480178       -0.9294274151
 H         -0.3465218959        0.6784552829       -1.0378754076
 H          1.1515378938        0.9138409336       -1.6673172739
 O          3.4829454690        1.0027202106       -0.2541707355
 H          3.4785095254        1.9683271893       -0.0267761097
 O         -2.2709818099       -0.0948300097        3.6768346154
 H         -3.1721614293       -0.1798177712        3.2820237323
 H         -2.3643454735       -0.2294088383        4.6195488454
 O         -2.2105061764       -0.8170811788       -0.2080195376
 H         -3.0019871718       -1.3494409508        0.0201619411
 H         -2.0440034453       -0.9329336643       -1.1711077257
 O         -0.1215049062       -2.9849209626       -3.2918656225
 H          0.3814673358       -3.1957941440       -4.0777884823
 H          0.5280895076       -2.6124055350       -2.6239423672
 O          5.7993820862        0.2887601977        0.9372884093
 H          6.5474836747        0.5996257236        0.4264488319
 H          4.9913769776        0.5543382940        0.4425931988
 O          1.3891806595       -2.0013295178       -1.4607181122
 H          2.3273544757       -1.8333582700       -1.7205902179
 H          1.0234709857       -1.0849764248       -1.2324126326
 O         -1.0932464144       -4.5465472401       -1.2009878377
 H         -0.7505694715       -4.0996585350       -1.9925878399
 H         -0.5127342442       -4.2759757629       -0.4654646939
 O         -1.2522967068        2.2523187515        2.5182294316
 H         -1.4628813105        1.4661425053        3.0420032869
 H         -1.7592761161        2.1581564708        1.6970770993
 O          0.0398881183        4.7425710563       -0.5068243910
 H         -0.5982958927        4.1542267554       -0.9586605306
 H         -0.2388632540        5.6436278746       -0.6715929410
 O         -0.6977514242       -1.4747965613        1.9320965508
 H         -1.2499764950       -1.1146445720        2.6468096901
 H         -1.1491843557       -1.2052771826        1.1099317546
 O         -4.2995188663       -2.0285073400       -2.9530177272
 H         -4.0863973449       -2.8496364749       -2.4756288145
 H         -3.4469784957       -1.5577844878       -3.0414018158
 O         -2.7327896247        1.7155267743        0.2120412476
 H         -3.6959980574        1.7116493459        0.3087857308
 H         -2.4880950290        0.7634217827        0.0831407370
 O         -0.7492693417        1.3779728786       -3.6214755996
 H          0.2148028393        1.4811677812       -3.6107420938
 H         -1.0857535965        2.0693588115       -3.0306304551
 O          2.9243604275       -2.9944592334        2.0313760250
 H          3.1629461704       -3.7549445342        2.5618247140
 H          2.1171206464       -3.2512875483        1.5217534811
 O         -1.8406300431       -0.9409372405       -2.8332138520
 H         -1.4489686050       -0.1146194662       -3.1936593495
 H         -1.2438070806       -1.6690555573       -3.0901671711
 O         -5.9545378206       -0.8096014006       -1.3877611712
 H         -5.3094852622       -1.1980547806       -2.0552612779
 H         -6.8279481528       -0.9884352931       -1.7360217902
 O          5.0561279906        2.4254062071        2.6572078111
 H          5.4115196160        1.5995937920        2.2972770063
 H          4.2974878361        2.1720634876        3.2163261252
 O          1.9606410141        1.8481460988       -3.1037096804
 H          2.7969584231        1.4650618901       -3.3698012378
 H          2.1720812052        2.6974941730       -2.6470781185
 O          2.6426290366        1.7281904549        3.7551814907
 H          1.9861700628        2.3379979634        3.4045991490
 H          2.2433292006        0.8409940724        3.7543380397
 O         -3.6654650740       -4.1646830011       -1.2889482104
 H         -2.6760667058       -4.2793937240       -1.2196754320
 H         -4.0192572739       -5.0481005925       -1.3909908034
 O          3.4952845157        3.4526834355        0.7737200431
 H          4.1786301082        3.2356241474        1.4527306040
 H          2.6773035299        3.5847389663        1.2837674186
 O          2.4646141902        4.0714477273       -1.7107234359
 H          1.6145301198        4.3532952278       -1.3349050877
 H          3.0393332623        3.9484876121       -0.9393373457
 O          1.6493727213       -0.8531797969        3.3917022369
 H          2.2676529684       -1.5111851527        3.0431092594
 H          0.8211628855       -1.0137353208        2.9175811766
 O          0.9901063044        3.7136801616        2.0013433035
 H          0.2199430609        3.1948233180        2.3007387856
 H          0.6564089664        4.2323509545        1.2572732963
 O         -4.6322074465       -0.4263794935        2.5060826978
 H         -4.8831873408        0.2658501384        1.8762564691
 H         -4.5393099097       -1.2304794570        1.9734367087
 O          0.6795971794       -3.4431065869        0.6458007707
 H          0.9861782286       -2.9220621701       -0.1343375709
 H          0.1363828749       -2.8305691108        1.1725614243
 O         -4.4214166492       -2.2254139940        0.4187804450
 H         -5.0952802374       -1.7894966127       -0.1292005825
 H         -4.1836986585       -3.0446934631       -0.0551912845
 O          3.8684344689       -1.2288684849       -1.9492225080
 H          3.7677360317       -0.3427568619       -1.5733601061
 H          4.3603187244       -1.7341160807       -1.2654446185
 O         -5.4369622361        1.2144064957        0.3460015410
 H         -5.5989815271        0.5170986185       -0.3217969884
 H         -6.2604691488        1.6888602206        0.4613614463
 O          4.9755062467       -2.3020272245        0.2659846602
 H          4.2754625162       -2.5643428879        0.8871314700
 H          5.3929046041       -1.5196793230        0.6594395618
 O         -1.8170199677        3.1878332151       -1.7533225439
 H         -2.1470161207        2.6257324982       -1.0034411483
 H         -2.5857414182        3.6168398716       -2.1304987017
