  312
       -524.29781124
 H         -1.1999832339       -0.8377934873       -0.4208003448
 C         -0.7096928614        0.0965837405       -0.1556687773
 H         -0.9642944981        0.8592341635       -0.8885809953
 C          0.7887541367       -0.1348733284       -0.1405985196
 H          1.0686335536       -0.6278414015       -1.0667240805
 H          1.0455849507       -0.7665352389        0.7064440384
 O         -1.2142432726        0.4916984363        1.1117409604
 H         -0.9200521429        1.4190594392        1.2749259553
 N          1.5348616017        1.1246939170       -0.0247094612
 H          1.1763652739        1.8324947824       -0.7007631553
 H          2.5438979672        0.9247799054       -0.2495095110
 H          1.4668391435        1.5087134210        0.9447208533
 O          3.5560451482       -2.1194476326        0.1344126307
 H          3.2586348489       -1.3882408871        0.6890529902
 H          3.1127414799       -2.0105719796       -0.7349160877
 O          1.4552075565       -2.4399753144        5.5683447337
 H          1.5368434635       -3.1120052576        6.2443461893
 H          0.5070833135       -2.4456983731        5.2812250245
 O          5.4489123935       -0.1400792873        1.3656505669
 H          5.7760979979       -1.0500798684        1.5010873419
 H          4.5025305305       -0.1525286197        1.6297116916
 O         -1.7197480660       -3.1234052261        0.0971601585
 H         -2.3925842966       -2.8054259768       -0.5392096289
 H         -2.1126641956       -3.8992466585        0.5438762291
 O          4.2583189012       -3.8934247294       -2.5187301407
 H          3.8515328664       -4.5810383036       -1.9749758898
 H          5.0146904655       -3.5794398721       -2.0066963426
 O          3.0925740547        2.3506446383       -2.6886598391
 H          3.8004442098        2.8763127551       -3.1020295078
 H          2.9582985386        1.5659569944       -3.2588796876
 O          0.9433298365       -3.3544508840       -0.3168716511
 H          1.2167485222       -2.8284915685       -1.0853505534
 H         -0.0303632142       -3.3680785168       -0.3056654568
 O          0.3705594614       -0.2263548131        3.7632533791
 H         -0.5665458064       -0.0061234143        3.6276364305
 H          0.5611431454       -1.0444495380        3.2678827644
 O          8.6123437996        0.0570164315        2.5258787353
 H          8.0186994774        0.6832969873        2.9518714797
 H          8.4929243020       -0.7736401999        3.0328594316
 O          1.6243411824        4.3173296597        0.3435174839
 H          1.9166486415        4.9746627523        0.9957397461
 H          2.3438045316        3.6600705464        0.3335460833
 O          0.5970892193        2.8226418051       -1.9535794807
 H          1.4960371054        2.8655379307       -2.3483209866
 H          0.1296269455        2.1330765353       -2.4578756346
 O         -0.3790928850       -2.0194484087       -2.8126871730
 H         -1.1157786139       -1.9450914720       -3.4500851797
 H          0.3835848635       -2.3566305842       -3.3354941824
 O         -3.5007562782       -3.9978468485       -3.4139859466
 H         -2.6848399843       -4.4250846169       -3.0834981703
 H         -4.2442078620       -4.5956228113       -3.2234279299
 O          2.4147225192        2.2447439578        5.1679333482
 H          2.4275548516        2.7915145133        5.9533951902
 H          2.6182855191        1.3278627826        5.4668340555
 O         -7.0451834563       -4.3144658661        1.5920373023
 H         -7.4540718376       -5.1025371477        1.9484206266
 H         -6.9603879957       -3.6873376374        2.3507909310
 O         -1.7691156258       -1.7885182607        2.3887018556
 H         -1.6312116303       -0.8615175676        2.1372543012
 H         -1.5782848248       -2.3018677962        1.5757044557
 O         -3.0704651709        0.3889514753       -2.3551401850
 H         -3.3211405371        0.6326278384       -1.4405909065
 H         -3.6083525911        0.9590756547       -2.9385761345
 O         -9.0479250312       -0.2703519885        0.1820763861
 H         -9.9666379356       -0.4750334391        0.0138213754
 H         -8.5234170410       -1.0658674940       -0.0776900725
 O         -0.5616512658        0.6839389852       -3.1837505778
 H         -0.2178773772       -0.2228551704       -3.0999648456
 H         -1.5114983276        0.6079586254       -2.9455411647
 O         -3.5083946786        3.0440920167        1.6035906578
 H         -2.5485906000        3.1371129686        1.5415296952
 H         -3.7384188930        2.2199683459        1.1410274748
 O          3.0552563789       -0.0205608737       -3.8423130486
 H          3.9978038565       -0.2124645774       -3.6596276184
 H          2.8997463396       -0.3876194310       -4.7378708158
 O          2.8631766912       -1.6148334235       -5.9598974595
 H          2.2242965679       -1.4069724481       -6.6464395396
 H          2.4455173720       -2.3033657812       -5.4088698742
 O         -5.7184883382       -5.3206425304       -2.6036315461
 H         -6.1575505837       -6.0803518001       -2.9845600447
 H         -6.3303403003       -4.5433797351       -2.7341155724
 O         -3.7776769317        0.6678210212        0.2724709516
 H         -2.8897732798        0.5327849215        0.6515805385
 H         -4.2977919146       -0.1164516064        0.5349571652
 O          5.5670883621       -4.8298759545        0.0429222451
 H          4.7766171224       -4.8193240465        0.6147038696
 H          5.9567116046       -5.6999133871        0.1091795520
 O         -2.4243605412        2.9962896354       -1.2536951769
 H         -3.3910878492        2.8657631128       -1.2069275745
 H         -2.2471027691        3.2591319645       -2.1781940474
 O         -2.1578802592        0.7691346658        3.6379090295
 H         -3.0220621862        0.5177226524        3.2792151292
 H         -2.2136930378        1.7379274014        3.8035240945
 O          2.9593719021       -0.2782596258        2.1086541909
 H          2.9724871088       -0.9944448223        2.7812036456
 H          2.5804950586        0.5190439901        2.5032867397
 O          3.9045362555        0.3547140796       -0.9683275784
 H          3.9404480517        1.0760548150       -1.6120582756
 H          4.7091633295        0.3797686513       -0.4346184199
 O         -1.1099940098       -2.5822913415        4.8930220369
 H         -1.2610801729       -2.2717204560        3.9787325258
 H         -1.6024885876       -1.9417033501        5.4494573704
 O         -0.7295177644        3.0561304251        0.8806969429
 H         -1.1469907245        3.0464468180        0.0049238085
 H          0.1005461493        3.5554103425        0.7705614886
 O         -7.2287338225       -3.2114610464       -2.8601317595
 H         -7.2985317338       -2.7922094509       -1.9823149411
 H         -6.8542667269       -2.5523718369       -3.4635812138
 O         -5.0341671174       -1.6844002862        0.7512624683
 H         -4.8354753704       -2.1583364127        1.5904557016
 H         -4.5693170937       -2.1923540822        0.0655428520
 O          4.7510602878        4.7417202153       -1.1940679552
 H          3.9557769173        5.2307277475       -1.5082770244
 H          4.3951202326        3.9533310202       -0.7504465834
 O         -7.3776649914       -0.1004225320        2.3560603694
 H         -7.6055532502        0.6164184704        3.0050702756
 H         -8.1716755901       -0.2333943664        1.8130611960
 O          3.7865146999        2.7452793992        0.5782056780
 H          4.6335844516        2.3390741274        0.3119018722
 H          3.8366813126        2.8424689841        1.5459495388
 O          6.8277580742        1.6417152968       -2.8841115729
 H          6.4022515629        0.7958703967       -3.1274450573
 H          7.7704619259        1.4307599372       -2.7340840638
 O          9.2021619751        0.7842313814       -2.0160614353
 H          8.7988432192        0.3274971842       -1.2414884208
 H          9.8943728976        0.2114023336       -2.3433185205
 O          6.1930865597        1.4913788926        3.2282766138
 H          5.4141307717        2.0659568804        3.3511355655
 H          5.9684653810        0.9009288906        2.4555080564
 O         -5.1226616018        2.9905551881       -1.3354134546
 H         -5.6190661228        2.3262825575       -0.8391775907
 H         -5.1758026748        3.8195346357       -0.8141163226
 O         -4.8228273012       -1.5712421283        5.0751077804
 H         -4.1309332034       -1.3849217166        5.7201103958
 H         -4.8019470343       -0.8100215110        4.4556479649
 O         -4.7418758896        0.2662305060        3.1062414712
 H         -4.9150587944        1.1726410231        3.4700031160
 H         -5.5515485251       -0.0129574488        2.6643562986
 O         -0.4039135528        2.4085731214       -5.1713818752
 H         -0.9475888349        2.0376133681       -5.9067120312
 H         -0.4107205308        1.7010056993       -4.4877821836
 O         -4.3415711908        2.2556398377       -3.8381755439
 H         -4.8661274840        2.5814449430       -3.0887777746
 H         -3.6622830954        2.9328528663       -3.9881595877
 O         -2.3588144396       -0.5054586698        6.0107407111
 H         -1.6592168068       -0.1142414832        6.5491752510
 H         -2.3396610076        0.0163988436        5.1778629943
 O          1.1767916966       -5.7466968865       -3.3635742047
 H          1.4225144855       -6.5735574691       -3.7761613309
 H          1.6890485457       -5.6808318221       -2.5216015963
 O          1.3436734925       -5.8372222073        1.6118082651
 H          0.8742569652       -5.6484267210        2.4323645974
 H          0.6290222868       -5.9304028296        0.9491653936
 O         -0.4627623894        5.3553728365       -2.2331505626
 H         -0.0775592907        4.4671687559       -2.0765295892
 H          0.2735738591        5.9132292047       -2.4979630856
 O         -0.3114240720        3.2214151985        5.8161586042
 H         -0.1373135479        2.2912661465        6.0482119273
 H          0.3396416931        3.4725656118        5.1461077841
 O         -6.7000484031        3.4917652061        1.8640961028
 H         -6.7018608516        2.7948095623        1.1890939716
 H         -6.3311114424        4.2755740956        1.4392233476
 O         -2.1499960287        3.9017956403       -3.7806978636
 H         -1.6784437676        4.6823282147       -3.4454167533
 H         -1.5190086501        3.4378925252       -4.3688117885
 O          1.3987318545        1.8948064200        2.5385559251
 H          1.2228570192        2.7809546092        2.9077604004
 H          0.9284557901        1.2501521530        3.0999257239
 O         -2.3990122868        3.3463017722        4.2132053616
 H         -1.7225728582        3.3763107953        4.9306904652
 H         -2.1302101070        4.0097539998        3.5594637617
 O          0.1876514535        0.5450269565        6.3696255767
 H          0.3518784664        0.2080960670        5.4660513246
 H          1.0003117121        0.3880534320        6.8548231233
 O          6.1836983389        1.9299071205       -0.3203505583
 H          6.4319753564        1.9701674296       -1.2702896758
 H          6.7322331190        2.5615469506        0.1705129696
 O         -2.9522084495       -5.0158725162        1.5792589657
 H         -3.6481492044       -5.0583843363        0.8891527638
 H         -3.3655940516       -4.4249991320        2.2391407128
 O         -4.0673617093       -2.9496321662        2.9005432108
 H         -3.2323230981       -2.4459776500        2.7786220270
 H         -4.4030875563       -2.6646242792        3.7704777533
 O          2.8955040085        5.8599072184        2.2295825114
 H          3.8179230986        5.6455602798        1.9357683694
 H          2.8484722610        6.8157546123        2.2440724392
 O          2.9970142968       -0.1627603843        6.1090659759
 H          3.9126299477       -0.3536019708        5.8306463169
 H          2.4785883754       -0.9526375973        5.8858505467
 O          7.3173847927        3.3904420109        1.6933460427
 H          8.2617108887        3.4738185513        1.8249646899
 H          6.9987907968        2.7100017664        2.3314288349
 O          4.0309970211        3.0955643043        3.2629902088
 H          4.0960875959        4.0450079871        3.3767999927
 H          3.3552071552        2.7701678174        3.9046205656
 O          2.3722738715        5.5957540986       -1.9646739085
 H          1.9558637185        5.1130463638       -1.2246483051
 H          2.1693722848        5.1068404288       -2.7791496642
 O          2.3681352572       -2.0369486340       -2.2284965880
 H          2.9925022199       -2.7323180002       -2.5312309780
 H          2.5589847779       -1.2525398014       -2.7855060978
 O         -0.7669280756       -6.0637514516       -0.0464164277
 H         -0.9323950576       -5.5351754557       -0.8485380692
 H         -1.5538767196       -6.0014181825        0.5018282417
 O          2.4305329693       -5.4634883207       -1.0307138609
 H          2.3425629481       -6.1375244599       -0.3529027326
 H          1.8950158621       -4.7029691104       -0.7048200658
 O          3.4261894187       -2.3445573985        3.6798499165
 H          2.6932085526       -2.4503558447        4.3098465898
 H          3.3498655771       -3.0950649301        3.0544933743
 O          6.0280605893       -2.7559244411        1.8049532314
 H          5.2269329886       -3.1243378072        2.1929690059
 H          6.1860808599       -3.2935493907        1.0110101242
 O         -1.7777331360        1.0245614111       -6.9388050924
 H         -2.5680111590        0.5890567301       -6.5929243464
 H         -1.1378545839        0.3383704016       -7.1821269875
 O          3.4790728198       -4.2047320365        1.7251689534
 H          3.3544327081       -3.4978759223        1.0488207627
 H          2.6985726760       -4.7914733786        1.6749706243
 O          7.6863714001       -2.0527000516        3.9106090564
 H          7.2040489683       -2.4548662900        3.1712322604
 H          7.0120424035       -1.6724271944        4.4928794939
 O         -0.5422219122       -2.8044251186       -6.4213956294
 H         -0.1861536210       -2.0416393528       -6.8951254232
 H         -1.2633576156       -2.4621799252       -5.8602605716
 O         -5.8670755516       -0.4488270634       -1.9270981228
 H         -5.1532496314       -1.0432541777       -1.6544074207
 H         -6.0485372629        0.1489617078       -1.1898866143
 O         -7.7907855051        1.9689689834        3.9114474764
 H         -7.0435631112        2.0903526978        4.5087296065
 H         -7.7075346246        2.6861636830        3.2657343339
 O         -4.8682710517       -4.4450192051       -0.1311196799
 H         -5.6459955531       -4.4255407162        0.4504082187
 H         -5.1489574152       -4.8449997757       -0.9669239909
 O          5.9717452467       -1.9994086479       -1.1368393781
 H          6.6786986376       -1.5187783447       -0.6703253503
 H          5.1710713427       -1.9688325367       -0.5757852666
 O          5.3404215446        5.3738399730        1.3912473969
 H          5.2539449850        5.3201680963        0.4200994907
 H          6.0366520578        4.7384441971        1.6158028859
 O          1.5395541266        4.3037859871       -4.2673260256
 H          2.2878462938        4.1197445877       -4.8555402174
 H          0.8046370870        3.7743059162       -4.5991150900
 O         -2.1714406778        5.4720231426       -0.1269517938
 H         -1.5077229730        5.7876798937       -0.7586873516
 H         -2.3589705998        4.5654300378       -0.4486520742
 O          0.8917592452        4.3429319246        3.4781287931
 H          1.6027173612        4.9238436813        3.1773743112
 H          0.0674206334        4.6782427714        3.0851842695
 O          0.9307364686       -2.5545757624        2.3204070639
 H          1.0621387470       -2.8195812030        1.3947350942
 H          0.4735027781       -3.3050600718        2.7275009983
 O         -1.1005694034       -4.6149896626       -2.3598180997
 H         -0.4001690112       -5.0906591773       -2.8357188469
 H         -0.8288903835       -3.6719305493       -2.3658437964
 O          1.2487535828       -3.2530680303       -4.5317311215
 H          0.5941412244       -3.2511391726       -5.2684756443
 H          1.3489646712       -4.1679367828       -4.2288780762
 O         -7.4432894733       -2.3400275802       -0.2426916204
 H         -7.5972229071       -3.1268921415        0.3025646455
 H         -6.5834833241       -1.9965662573        0.0897992963
 O         -2.3515933930       -1.8537495105       -4.6256990346
 H         -2.9409271748       -1.1226236941       -4.9046106970
 H         -2.9169798374       -2.6092265216       -4.4025553769
 O          5.3543917398       -0.7010394973        4.8172800333
 H          4.8174282964       -1.2770733383        4.2483864737
 H          5.6495945455        0.0648559855        4.2956445920
 O         -0.5779064242       -4.7334962149        3.2761002143
 H         -0.9014396638       -4.2772967057        4.0641509339
 H         -1.3498667522       -4.9608282089        2.7443871594
 O         -5.0813162039        2.6957656226        4.0257822072
 H         -5.4353770252        3.1508484764        3.2439679090
 H         -4.1721998379        3.0215566486        4.1467910644
 O         -7.0543231320       -2.5484266487        3.5749860298
 H         -7.1981178210       -1.6749800940        3.1705474288
 H         -6.4398650631       -2.4033113034        4.3036563401
 O         -6.3135211135       -1.0256534999       -4.4538642289
 H         -7.1157994547       -0.6089171744       -4.7689998849
 H         -6.1494871103       -0.6798581440       -3.5483657388
 O         -1.4763534710        5.3549585663        2.4600526510
 H         -1.8023586136        6.1837883961        2.8098397895
 H         -1.6882876173        5.3538473253        1.4954778853
 O         -4.0183382231        0.0524144078       -5.4745177398
 H         -4.1301292756        0.9002841308       -5.0164261949
 H         -4.8507554739       -0.4283654639       -5.3141907258
 O          3.7146364084        3.5660521792       -5.8257637111
 H          4.0694675059        4.1128048298       -6.5265332719
 H          4.3569214309        3.6078444493       -5.0891898682
 O         -3.5856743556       -2.1156076459       -1.5623849350
 H         -3.2385822868       -1.3144815639       -1.9988050893
 H         -3.6395147305       -2.8134406708       -2.2547439353
 O          1.9184002273        1.4114436218       -6.2259116800
 H          1.1677139707        1.8836975222       -5.8257239536
 H          2.6680230642        2.0183848752       -6.1991452403
 O          7.8111190024       -0.2939010543       -0.0097070116
 H          8.2136296308       -0.2711892277        0.8860516666
 H          7.1367964723        0.4113809057        0.0104326642
 O         -4.8685745926        4.9763610134        0.4359671426
 H         -4.2366916171        5.6481742594        0.1618599601
 H         -4.3322769412        4.3245293980        0.9563043208
 O         -6.7579070427        1.2657113757        0.1202893170
 H         -7.6669202090        1.1211853585       -0.1751583583
 H         -6.6885195753        0.7095632791        0.9231668929
 O          5.2628403565        3.6867096342       -3.6267704819
 H          5.2563304060        4.2314686183       -2.8137073230
 H          5.9447667351        3.0048839094       -3.4849482026
 O          0.5576063486       -0.4475201587       -7.5426638300
 H          1.0966711899        0.2287435080       -7.0707996124
 H          0.7308079331       -0.3256780434       -8.4766760408
 O          5.6071267716       -0.7263223238       -3.3751748700
 H          5.7920628805       -1.3669682655       -4.0623875839
 H          5.7060231831       -1.2149841325       -2.5072576371
