  132
       -218.69279123
 H          2.4322412613        0.1933111313        0.6812668998
 C          2.0954228406        0.0433176641       -0.3448186383
 H          1.9029322894        1.0132385296       -0.8044117382
 C          0.8060123825       -0.7731134400       -0.3482912152
 H          0.8961401862       -1.6635636104        0.2719857497
 H          0.5681776016       -1.0710403974       -1.3669070238
 O          3.1276490110       -0.5477892192       -1.1017559794
 H          3.2296633544       -1.4952429976       -0.8174212136
 N         -0.2701011448        0.0728903018        0.1789566933
 H         -1.2208104821       -0.3809978138        0.0821793112
 H         -0.2468059466        0.9838952545       -0.3195517193
 H         -0.0860991617        0.2559786965        1.1876029988
 O          4.3968738635        1.7610925275       -2.0209670143
 H          5.3341577414        1.6347685323       -2.1810977246
 H          4.1009544854        0.9470678210       -1.5809537586
 O         -2.8787600710       -2.1700158584        2.4392791128
 H         -3.7774432331       -1.8329754102        2.5381381559
 H         -2.3434838194       -1.7103093836        3.1151280848
 O          0.7784172262       -3.7344609592       -1.5707870840
 H          0.9810797054       -3.5482960522       -2.5008753637
 H         -0.1816260929       -3.6139340935       -1.5080862690
 O          0.8951716808       -1.5570118431        5.6265915085
 H          1.4424234215       -0.7400789078        5.5408768267
 H          1.1302197858       -1.9523806557        6.4663312955
 O         -3.1002092825        0.4813363377       -3.9163101465
 H         -2.4040530863       -0.1998257559       -3.9728219691
 H         -2.6641148509        1.3356061620       -4.0424558773
 O          2.9572862352       -0.8727979551       -3.7688539187
 H          2.7285852291       -0.0244310000       -4.1686363728
 H          2.9295258633       -0.7100761085       -2.8018938736
 O         -1.6818737971        2.8846332327       -3.3279816412
 H         -2.2212563781        3.2010372840       -2.5799800151
 H         -0.9379806231        3.4978085960       -3.3976283266
 O          3.2205362408       -0.1661861373        2.7983189623
 H          3.8994832630        0.3202028106        2.3015928658
 H          3.3458423500       -1.1119133565        2.5805047337
 O          2.4551698322        0.5755813648        5.2787725696
 H          2.2750436803        1.5040325006        5.0775956633
 H          2.9290605246        0.2466959479        4.4947945253
 O          4.9015353873        1.2307486661        1.1385494356
 H          5.6258124772        1.7887364639        1.4261377406
 H          5.2551364812        0.6896608075        0.3979216646
 O         -3.3501001415        3.4137691256       -1.1977954492
 H         -3.5908104022        2.4548908755       -1.1682059870
 H         -4.1511148226        3.8927910751       -1.4120998414
 O         -0.4746919584        2.9204838525        3.4438297634
 H         -0.9226556772        3.2992876251        2.6717628369
 H         -1.1797202597        2.5421275527        3.9991900006
 O         -2.6056865273       -1.1340279053       -0.0666436816
 H         -2.7756738030       -1.5178049137        0.8147278847
 H         -2.3709039030       -1.8865086545       -0.6717557431
 O          0.2922421680        2.7108412369       -0.2269294802
 H          1.0809742526        2.8405869997        0.3256448982
 H         -0.4709409614        3.0705988349        0.2739776448
 O         -2.7258313817        0.9463317610        1.9315968765
 H         -2.7315542248        1.1307160242        2.8797790934
 H         -3.5489050698        0.4642253240        1.7524563746
 O         -5.9623662469       -2.1005564105       -0.1186040969
 H         -6.7556293325       -2.6108591737        0.0468132259
 H         -6.2237589333       -1.3452426763       -0.7232241158
 O         -1.9048436832        3.3390194861        1.1198922538
 H         -2.4402605963        3.6379999308        0.3679466730
 H         -2.2572251640        2.4466541999        1.3392864508
 O         -1.8959556304       -2.9755238180       -1.7586871708
 H         -1.6343931609       -2.3980467285       -2.5111053827
 H         -2.8039976463       -3.2782881534       -1.9805383210
 O         -3.9051292103        0.8302536801       -1.3563691904
 H         -3.4719681549        0.1470622640       -0.8048960062
 H         -3.6003692069        0.6649885540       -2.2741394968
 O         -5.0748878860       -0.5460994747        1.8874684152
 H         -5.3282528202       -1.1332317526        1.1403794774
 H         -5.8617718222       -0.0514512700        2.1175416926
 O          1.1735467954       -2.7805917345       -4.1801719323
 H          1.8716806519       -2.0882900327       -4.0769905240
 H          1.4374144856       -3.3343018438       -4.9149693571
 O         -1.2506799826       -0.8521746747        4.1827496423
 H         -0.6696290511       -1.2506238542        4.8522567113
 H         -0.6260419854       -0.4369004237        3.5479115765
 O          3.2293823508       -3.1081907475       -0.5195873905
 H          2.3610034826       -3.4575754749       -0.7921672635
 H          3.2705310166       -3.1377103067        0.4532760032
 O         -5.3098291888       -1.1386313814       -4.0141396202
 H         -4.5634185968       -0.5179788075       -4.0905859202
 H         -5.5987734754       -1.3422343174       -4.9042236300
 O         -0.4567434070       -3.0427562525        1.4160488431
 H         -0.4410854252       -3.7641121515        0.7840074227
 H         -1.3677232084       -2.9523578502        1.7285740013
 O          3.1787457941        4.1879754093       -1.1943357558
 H          2.9791576668        3.9830535796       -0.2728169028
 H          3.7103516095        3.4465269633       -1.5158414350
 O         -2.4121132714        1.4614708245        4.7002203815
 H         -2.8850044568        1.5375755429        5.5284978511
 H         -2.0091299742        0.5597622594        4.6681338503
 O          2.1276089765        3.1314315568        4.0433633140
 H          1.1605345051        3.1982947548        3.9216387410
 H          2.4136070587        3.9436671245        4.4628968556
 O         -4.4919534774       -3.1913051133       -2.2364438103
 H         -4.9385345703       -2.9257976689       -1.4164729593
 H         -4.7796076288       -2.5590977997       -2.9119766474
 O          5.1849611211       -2.1494879949       -2.3324840638
 H          4.6344397433       -2.7298432730       -1.7880268012
 H          4.6298360276       -1.8476508926       -3.0614843280
 O          1.2871549464       -3.3303024605        3.4900522996
 H          0.5880518269       -3.2130561962        2.8190888724
 H          1.1116873849       -2.7052742883        4.2122089437
 O          0.5343762800        0.4970883174        2.7182603520
 H          1.4908289681        0.3410990450        2.8233626243
 H          0.3311168784        1.4153516764        2.9824689615
 O          3.4550718093       -2.7948883834        2.1941198690
 H          4.1654144857       -3.3086388412        2.5797887185
 H          2.6226354228       -3.0573315117        2.6881733951
 O          2.6049884505        2.8746461166        1.2957307809
 H          2.5139809576        2.9833857945        2.2565039986
 H          3.3714957888        2.2962277291        1.1610533583
 O         -0.0928058954        0.8430433578       -2.5613919613
 H          0.7599709536        1.0967277311       -2.9660461452
 H         -0.7067750561        1.5643122502       -2.8020484097
 O         -1.0730995132       -1.3049858559       -3.6807606287
 H         -0.6318510972       -0.5348170305       -3.2369008322
 H         -0.3573184303       -1.8418488530       -4.0585561053
 O          6.1346483026       -0.1499173415       -0.8308259323
 H          7.0279847650       -0.4315750933       -0.6313157237
 H          5.7474306423       -0.8759897997       -1.3767349835
 O         -6.4185629227       -0.0946345159       -1.6980040718
 H         -5.5890119610        0.3913252362       -1.5123115795
 H         -6.2973544262       -0.4522281967       -2.5909877947
 O          0.8385393458        3.9272523092       -2.6041335898
 H          0.5547449487        3.4743100985       -1.7837570269
 H          1.6442242819        4.3915077920       -2.3251393884
 O          2.1689903910        1.8252840067       -3.6698766806
 H          3.0092349166        1.8964187140       -3.1876805112
 H          1.7239665523        2.6849095166       -3.5211146909
