  282
       -473.35248583
 H         -1.2871264974        0.7503785225       -0.4090212052
 C         -0.4940285362        0.2686440066        0.1585112529
 H         -0.1072722554        0.9602335664        0.9034421958
 C          0.6146554836       -0.1578186743       -0.7862324202
 H          1.0499215375        0.7197516237       -1.2498683405
 H          0.2030087039       -0.8121263586       -1.5484886752
 O         -1.0186903147       -0.8374278910        0.8600717076
 H         -1.2684186628       -1.4976054413        0.1895633790
 N          1.6422751790       -0.8960659249       -0.0386485016
 H          2.0399275946       -0.2905799710        0.7056341259
 H          2.4011762387       -1.1942326034       -0.6878613373
 H          1.2045829684       -1.7345708757        0.4137863983
 O          2.1285818659        5.5082059257        2.1917308639
 H          1.3991990996        5.3436137397        2.8172676396
 H          2.9441521302        5.3875373818        2.6883730197
 O         -2.5003777634        1.1331803585        2.3400714208
 H         -2.4874113686        0.1930872984        2.0781994733
 H         -2.8531063641        1.1584524340        3.2533571671
 O          1.8922270473        0.5867302738        5.9567282510
 H          2.3223236417        0.9528991386        6.7293838979
 H          1.9525367615        1.2787949033        5.2575861283
 O          0.7117403895        2.9277998260       -1.2776427827
 H         -0.2428299348        2.7290994695       -1.3404031127
 H          0.7759923236        3.8026596573       -0.8433762031
 O          4.6903945827        5.4568585865       -1.7686237747
 H          4.5603731201        4.9666623062       -0.9188395997
 H          5.0298578532        6.3226555333       -1.5438424156
 O          3.5303139603        2.0157967582       -3.6197418308
 H          2.7032901261        2.4717142651       -3.8579664923
 H          3.5307895062        1.1747283926       -4.1080937247
 O          2.0144175515        2.5690623839        4.1978826638
 H          1.3309166343        3.2509657134        4.1914494716
 H          2.8260085851        2.9859240485        3.8557779468
 O         -3.3078991720       -1.3685037290       -3.0667526851
 H         -4.0548039770       -0.8332657356       -3.3699902762
 H         -3.4480039005       -2.3079898744       -3.3022610231
 O         -1.3260862415        0.4196541677       -3.2894346864
 H         -1.3408788906        0.4392318394       -4.2646199610
 H         -1.9350915778       -0.3080301849       -3.0667179337
 O          0.1894366404       -0.6716039868        3.2675776295
 H         -0.3389120185       -0.8242773943        2.4631525074
 H          0.9232557514       -0.0831515449        3.0113445946
 O         -1.5914903023       -3.1307419606        2.7935477728
 H         -2.2647018048       -2.5573921072        2.3848984461
 H         -1.6039421733       -2.8737758054        3.7357349609
 O         -3.2090873985       -3.7754473597       -0.1409483016
 H         -3.9160675505       -4.0720711037       -0.7374468805
 H         -2.6981157362       -4.5913653530        0.0829650905
 O         -1.0907442059       -2.5401327489       -4.2477196765
 H         -0.1837143047       -2.8493893876       -4.3775109586
 H         -1.6770250802       -3.2884365077       -4.3878854529
 O         -3.0121461370        4.6635409165       -2.5980609401
 H         -3.8869760767        4.3099510022       -2.8658785867
 H         -2.4662011553        4.6510849750       -3.4021942133
 O          7.5593595253       -2.3332392611        2.0424558620
 H          7.7194250771       -1.3967113681        1.8119043524
 H          6.9454141753       -2.3176887457        2.7894513460
 O         -5.0878412388        0.7353573654       -3.3040177900
 H         -5.1458211093        0.8299752506       -2.3186526702
 H         -5.9404404910        0.3390310859       -3.5377404597
 O          1.0058521863       -3.8104554355       -1.8137861835
 H          0.2907232900       -3.2794475624       -1.4119427667
 H          1.6707232040       -4.0018047055       -1.1336564534
 O          4.5693083800       -4.1496808975        2.1896801775
 H          5.3635365713       -4.6397482812        1.9729635681
 H          4.8561025799       -3.3941053413        2.7441262075
 O         -6.4266568587       -1.4381542182       -0.6950012557
 H         -6.6271112575       -2.3523673703       -0.3985012760
 H         -6.9423272631       -0.8450718827       -0.1153335964
 O          2.0039457487       -5.0359655143        3.2225590966
 H          2.8945263741       -4.7239129258        3.0188510373
 H          1.5951164688       -4.3811039834        3.8069578682
 O          1.7792682181        2.9511779668        1.2213580198
 H          0.8155345504        2.9998850854        1.3435823384
 H          2.1147681854        3.8172242943        1.5014144696
 O          4.2191421163        3.7977698843        3.1254430277
 H          4.2588943391        3.8208017662        2.1479374392
 H          5.0689112650        3.4501955054        3.4146976626
 O         -7.2162506652        3.3994140629       -0.6544690423
 H         -7.5281513523        3.2181593411        0.2471258926
 H         -6.4838153921        4.0444437184       -0.5249720905
 O          0.0757241312        4.5804586762        3.7530981719
 H         -0.3315199869        4.0437779656        3.0306478104
 H         -0.6389691058        5.0700848959        4.1593629412
 O         -1.9231655436       -2.2316226399        5.3355991608
 H         -2.8806805506       -2.0955934101        5.3117997775
 H         -1.5451308879       -1.3505156545        5.5169239650
 O          3.0447640161       -1.1415604622       -2.3130476120
 H          2.4383293170       -0.5543815074       -2.8306274143
 H          3.1293360063       -1.9620445098       -2.8033635438
 O          2.7499748913       -2.1044240995        2.6190090239
 H          2.9710349718       -2.1863424789        3.5639851133
 H          2.5735559797       -1.1647827511        2.5009111591
 O          9.0218164989        0.3663653721       -1.4040663612
 H          9.7981921857        0.6978115879       -1.8545574879
 H          8.2887302649        1.0064984449       -1.5740540083
 O          5.5517507113       -0.2531851105       -2.3632704678
 H          6.1335813187       -1.0186066705       -2.2596088481
 H          4.6242299213       -0.5664854285       -2.2863040239
 O          6.7223734138        2.3369302357        3.2309087498
 H          7.4901114500        1.8195738291        3.4805276145
 H          6.8614251446        2.5638481151        2.2906410180
 O         -1.3647384955       -5.3251838997       -2.2948395685
 H         -1.5742156410       -5.7689374223       -1.4628164224
 H         -0.4644406001       -4.9789412941       -2.1993637327
 O         -4.9603682035        2.7650588950        3.0854014561
 H         -4.5342983354        2.4243737489        3.8823906973
 H         -4.3935157139        3.4988185135        2.7644993448
 O         -0.8466063362        3.1248957643        1.7472336609
 H         -1.4386109126        2.3916126236        2.0054124370
 H         -1.3026089984        3.6620567757        1.0748788776
 O         -3.4473133518       -1.4078162007        1.9783043072
 H         -3.4154288654       -1.3213996080        0.9987832860
 H         -4.2220011809       -0.8796065800        2.2204618037
 O         -0.8784092063        0.3060059291        5.4715548460
 H         -0.5576621689        0.0606231520        4.5738816642
 H         -0.0590891162        0.4572878350        5.9610975253
 O         -4.6044667399       -1.3632484892        5.2570243383
 H         -5.2097096717       -1.5921675868        4.5240924123
 H         -5.0774497535       -1.5450213226        6.0694161020
 O          6.3815343453        0.8071385449       -4.7288640903
 H          6.3950929450        1.7651100872       -4.6591605100
 H          6.1566347621        0.4749026674       -3.8366504696
 O          7.7594442401       -1.8951855818       -2.1736018912
 H          8.2934606880       -1.1373880812       -1.8561732540
 H          8.2219480805       -2.2743010861       -2.9205632077
 O          4.7908447563       -4.4858941164       -2.0198113473
 H          4.0310773379       -4.6419823220       -1.4288438325
 H          5.5000386956       -4.2003224363       -1.4271830338
 O          1.4387422574       -0.9430077316       -6.0376571641
 H          2.3689809890       -0.6859081825       -6.1187335571
 H          1.4445297232       -1.7959325981       -5.5722335981
 O         -3.5933839779        2.4999601216        0.3158841315
 H         -3.2747935869        1.9879175029        1.0870798614
 H         -2.9025919266        2.4267140316       -0.3737603210
 O          6.8802945626        1.8952992664       -1.5912503716
 H          6.2651886418        1.1316401697       -1.6471173857
 H          6.5503923701        2.5290860069       -2.2810819291
 O          3.3166083135        1.9626063405       -0.9423853616
 H          3.4258964842        1.9354038552       -1.9171705500
 H          2.4081982981        2.2645542355       -0.7790262603
 O         -3.5408604408        4.9292755666        2.2535928447
 H         -2.8835189369        4.9326992743        1.5374075190
 H         -4.2847012867        5.4212349342        1.8954941948
 O          1.2215821327        3.4950486325       -3.8026779178
 H          0.3511561189        3.5334710668       -4.2208937610
 H          1.0453156036        3.1995027207       -2.8770291633
 O         -8.1489502063        0.1160554710        0.7708506663
 H         -8.5583816015        0.5015880908       -0.0402264373
 H         -7.8430719717        0.8719117554        1.2946908334
 O         -2.9054807014       -5.5490064552        2.8097746967
 H         -2.3265989680       -4.7680433853        2.8962517194
 H         -3.7937034624       -5.1887241590        2.6800686373
 O          2.3089514765        0.6029600892        2.1765335894
 H          2.1181599365        1.5285852808        1.8770339899
 H          3.1624703541        0.6746417041        2.6481642525
 O          7.0643576075        3.1958072996        0.6533745644
 H          7.8273054303        3.7628379742        0.5474470399
 H          7.0203908019        2.6143406705       -0.1525172731
 O         -7.0298657729       -3.8365913295        0.3034785703
 H         -7.7872270155       -3.5326684859        0.8235115679
 H         -6.2963347625       -3.9589088724        0.9618578159
 O          1.3588535525        0.3526223493       -3.6645777393
 H          0.4259059392        0.4097745183       -3.4079737593
 H          1.3662087306       -0.0018683865       -4.5716415547
 O         -7.4204656178       -0.6064661650       -3.0014710986
 H         -7.0208053850       -0.9662014672       -2.1665954102
 H         -7.9542419257       -1.3048539463       -3.3790792723
 O          4.4900243300        3.9470731448        0.4071421925
 H          5.4247191944        3.6840372204        0.4932087474
 H          4.0266820744        3.1968276301       -0.0338775862
 O          3.1076884082       -1.8396461018        5.3204556346
 H          2.3372836688       -2.4234483548        5.4156434843
 H          2.7668558349       -0.9515809227        5.5266722214
 O          5.7647242816        3.4524156780       -3.3708306121
 H          5.4747431561        4.2660348010       -2.9300395375
 H          4.9349627756        2.9571805556       -3.5447491260
 O         -3.1370485497        1.7102488866       -5.2102529838
 H         -2.7051987177        0.9734373382       -5.6632159296
 H         -3.7723945343        1.3350282277       -4.5862792239
 O         -3.7520948840       -0.7544048296       -0.5113595976
 H         -4.7042939455       -0.9339284676       -0.5747868627
 H         -3.3862834872       -1.0435391674       -1.3621225443
 O         -1.9446265715       -6.0442035851        0.3835925371
 H         -0.9823389618       -6.0565941935        0.5632908270
 H         -2.3484814056       -6.1031050659        1.2788373337
 O         -5.5019535684        0.3729599228        1.8784967067
 H         -5.2316245765        1.2149151322        2.2813791261
 H         -5.5674699902        0.5318723231        0.9193101793
 O         -5.6183448289        1.2504561340       -0.7553855864
 H         -6.2844788903        1.9645627186       -0.7766333795
 H         -4.7955656051        1.6736705886       -0.4152294200
 O          0.6249555201       -3.0652950726        1.2836939782
 H          1.3717421651       -3.0066443153        1.9102756386
 H         -0.1924316153       -3.0431476186        1.8281223778
 O         -3.4245402880       -4.0181452639       -3.4352818929
 H         -4.2225038028       -4.3521395110       -3.0094127546
 H         -2.6872455780       -4.5259694599       -3.0322408150
 O          4.8233962500        0.4383777008        2.9685627579
 H          4.9797314082        0.4210992309        1.9910868454
 H          5.4345663925        1.1225401774        3.2906836836
 O          0.7856681837        5.4407160714       -0.3072161350
 H          1.3514979141        5.6506500126        0.4464762648
 H          1.2455836065        5.7410281595       -1.1291056595
 O         -6.2962858787       -1.8071487650        3.1962110209
 H         -7.1832478496       -2.1085630022        2.9505955849
 H         -6.1571162276       -0.9771131593        2.6992054429
 O          7.7465726358        0.2507734980        1.1783772721
 H          8.3429169726        0.2256256964        0.4219530408
 H          6.8529896182        0.3697362265        0.8115276754
 O          2.9337610276       -4.6726448016       -0.0571902324
 H          3.4547629777       -4.4220585191        0.7216750229
 H          2.2893739271       -5.3341856675        0.2508956085
 O          4.3593326732       -3.0093179533       -4.1203638251
 H          4.5406787730       -3.5551537163       -3.3035496431
 H          4.9010869129       -3.3961910121       -4.8079359143
 O         -8.8897213809        1.2145316616       -1.5182903601
 H         -8.3992795402        0.6814421927       -2.1692386129
 H         -8.4833540922        2.0882539439       -1.4979076540
 O         -1.8744413755        2.4241733552       -1.6905048629
 H         -1.7615218764        1.7221672949       -2.3680550471
 H         -2.2491000601        3.2112146909       -2.1337107338
 O          0.6630214979       -5.7195609524        0.9690915294
 H          0.5484203864       -4.7431916337        0.9699955261
 H          0.9931345493       -5.8977748976        1.8635906822
 O          4.1639079172       -1.9827974751        0.2138573110
 H          4.9504043729       -2.5406835458        0.0444033987
 H          3.8231580871       -2.2492115322        1.0820541365
 O         -3.4214217036        1.1127443106        4.8477647374
 H         -2.5401479507        0.9956000691        5.2430711219
 H         -3.8823841870        0.2683026713        4.9954706659
 O         -4.9713498250       -3.8813686421        1.9320856970
 H         -4.2621541102       -3.6128667316        1.3107059869
 H         -5.1962520708       -3.1004611261        2.4656436200
 O         -1.3251043443       -0.3499450801       -5.8644434049
 H         -0.4364323773       -0.3496053608       -6.2417808919
 H         -1.3852674526       -1.1999005213       -5.3851612869
 O         -1.4861654806        3.7529824637       -4.6961150265
 H         -2.0732409599        2.9786749388       -4.8568817201
 H         -1.4530569183        4.2300127730       -5.5254538914
 O          3.9722086257       -0.3250041904       -5.1617937973
 H          4.8525508043        0.0828806602       -5.2739361118
 H          4.1387129152       -1.1726526570       -4.7267087309
 O          5.1199214421        0.4302375143        0.3646322138
 H          4.4830226901        0.9968931100       -0.1051373371
 H          4.7971339113       -0.4951186594        0.2176525227
 O         -8.7045338963       -2.2570463609        1.8949566324
 H         -9.6260152198       -2.3230135690        2.1439081521
 H         -8.5869044327       -1.3788007019        1.4707667844
 O         -5.3654967899        3.4993112031       -3.1477706151
 H         -6.1548199777        3.5940614730       -2.6094361757
 H         -5.2631488257        2.5510919852       -3.3422505579
 O          0.7515179450       -2.9733601479        4.6997580100
 H          0.5549163152       -2.1838526132        4.1566727102
 H         -0.0485584338       -3.1497765260        5.2013381246
 O          1.6232525935       -3.1417772170       -4.3198658573
 H          2.5799637101       -3.2615082691       -4.4238444450
 H          1.4287437993       -3.4307023006       -3.4016053784
 O          6.4785105591       -3.2773598956       -0.1714304821
 H          7.0086159283       -2.8363349179       -0.8521948152
 H          6.9163380642       -3.0373825064        0.6817349284
 O          5.4077621497       -2.0686643946        3.7643104627
 H          5.2032469139       -1.1546868647        3.4654419056
 H          4.9052609621       -2.1720216191        4.5815374380
 O         -7.4928476307        2.6206625928        1.9990859821
 H         -8.1161421518        3.0054321737        2.6149177652
 H         -6.6064190724        2.7240592151        2.3957704217
 O         -4.9793984372        4.7770918832       -0.2041181661
 H         -4.5402134976        5.1576105664       -0.9680838380
 H         -4.4413240093        4.0010127840        0.0559295907
 O          2.0577615040        5.8233814254       -2.5845588142
 H          1.7872269648        5.0803392869       -3.1555098020
 H          3.0048794913        5.6964527339       -2.4149070027
 O         -1.8401549173        4.9659698375        0.0221496208
 H         -0.9347491932        5.3127833998       -0.0905848255
 H         -2.2275606866        4.9454285230       -0.8631216447
 O         -5.3093293395       -4.9145538709       -1.5450241538
 H         -5.2405303646       -5.8519329307       -1.3545071591
 H         -6.0622718046       -4.5820467174       -1.0298736855
 O         -1.2558149347       -2.4536579347       -1.3631181157
 H         -2.0011189990       -2.9737950683       -0.9926345134
 H         -1.3972729385       -2.4012207516       -2.3202897434
