  210
       -356.43571800
 O         -2.2479059487        1.2198828590       -0.5679029976
 H         -1.5880079337        1.2043766307        0.1433868770
 H         -3.0485156788        0.8070878801       -0.2048104672
 O          0.4045911412       -0.2921391992       -0.8244068028
 H         -0.3975567587       -0.8034769075       -0.6207885636
 H          0.6116702285       -0.5115934784       -1.7514719852
 O          2.5481248790        1.6443621346       -0.9512330453
 H          2.8716848812        2.4724296828       -1.3417187416
 H          1.6050258194        1.6301971010       -1.1760435593
 O          0.7719090202        2.6217136784        6.1829250938
 H          0.9334516942        3.2649715724        6.8724947016
 H          1.6477671310        2.3490860458        5.8312803507
 O         -1.2162428996       -2.7828420238       -2.6370351407
 H         -1.9894111484       -3.3212224139       -2.4198063754
 H         -1.4836654054       -1.8488891346       -2.6668439667
 O          1.1296312419       -1.4392143992       -3.1912338773
 H          1.2329568524       -2.3991539740       -3.0256916464
 H          0.3876720218       -1.3924690416       -3.8238960065
 O          0.3306370691       -2.0438188666        1.7468741563
 H          1.2768431695       -2.0111808265        2.0016233371
 H          0.3488172050       -2.3251718467        0.7957311603
 O          0.5045611775       -3.1001317186       -0.6244219483
 H         -0.0974774164       -2.9850390722       -1.3915397468
 H          0.4520312001       -4.0314424100       -0.3671454533
 O         -2.6971078532       -4.5103084342       -4.7214466198
 H         -2.8174214705       -4.7597256197       -3.7960357082
 H         -3.0203509191       -3.6000049857       -4.7968711653
 O         -4.7231433961        0.8962396283        2.9290713996
 H         -4.9193628135        0.0522872273        3.3678901746
 H         -3.8311361811        1.1548840625        3.2455834185
 O         -4.9923690768       -1.6903099376        3.9423237612
 H         -4.0693197390       -1.9986763751        4.1203835286
 H         -5.5325743857       -1.9939130857        4.6705755520
 O         -0.6228194396       -1.7848351164        6.0964514957
 H         -0.5046656314       -2.3265023579        6.8759604794
 H          0.1992046147       -1.8831109269        5.5571290790
 O         -0.1468163203        1.4777448872        1.2614308685
 H          0.1022240663        1.0552995289        2.1015614130
 H          0.3233155007        0.9922299529        0.5674579212
 O         -4.0031302819       -1.4198638044       -2.0563604886
 H         -3.2706681590       -1.4048944413       -1.3945108262
 H         -4.4404269174       -0.5636393041       -1.9998169566
 O         -1.9098419107       -0.7201558476        2.2774550346
 H         -1.9181125184        0.1551909677        2.7216507229
 H         -0.9740026234       -0.9748942501        2.1550185055
 O         -2.0200977109        3.5619645421        0.9924637881
 H         -1.2823057011        2.9584320219        1.1725726409
 H         -1.6692729675        4.4808731446        1.0223970870
 O          0.0788020348        2.7059424409       -1.3512463835
 H          0.2172612348        3.2673065281       -2.1377355385
 H         -0.8298635933        2.3914513392       -1.3649031096
 O          2.9484964772        1.9298820623        4.8119620154
 H          3.8904175101        2.1997730140        4.8027456743
 H          2.6020831243        2.3648545177        3.9882372020
 O         -0.9506805509        6.0038581793        0.9693112949
 H         -0.0823744666        5.5686358958        0.8294943071
 H         -0.9918067190        6.2371903187        1.9137133628
 O          2.1742127992        2.9753633532        2.5402294423
 H          3.0195710039        3.4095009465        2.2678950508
 H          2.2482024969        2.0620909948        2.1205038460
 O         -1.6297330155       -0.0453499330       -2.8371407999
 H         -1.8054528230        0.3631530707       -1.9619554486
 H         -0.8324966207        0.4108454588       -3.1887503564
 O         -2.0285049222       -1.5557374065       -0.2585794662
 H         -2.1987553440       -1.1212224770        0.5960049311
 H         -2.0423114382       -2.5115680513       -0.0559899297
 O          1.5192671031       -2.0996476079        4.5940743539
 H          2.4089982166       -1.7355656846        4.6862121458
 H          1.6326719313       -3.0408876168        4.3261608752
 O         -0.6539442538       -1.6047016669       -5.2623760424
 H         -0.4215650618       -2.5341178504       -5.4308092179
 H         -1.5925671275       -1.6160703260       -4.9869313878
 O          5.4275657232        0.2429246495        2.0633116119
 H          5.6938172295        0.9007088697        1.3959281151
 H          5.5627036554       -0.6125629411        1.6066514419
 O         -0.8247913223       -4.1266502178        2.7812060336
 H         -0.3592821262       -3.3206741680        2.4062915362
 H         -1.4525096228       -3.7526707050        3.4256084961
 O          2.7443952534        0.7150731248        1.5148114326
 H          3.6805039732        0.5586345256        1.7215663277
 H          2.7056816692        0.9680074772        0.5661432967
 O          1.6501296582       -4.6450782024        3.8191556556
 H          2.2187794990       -4.8354999317        3.0659764967
 H          0.7317824005       -4.6722117541        3.4924775240
 O          5.6626974884       -1.8101382429        0.3293965047
 H          5.0926237769       -2.5770199909        0.2325634406
 H          5.5528992854       -1.2942677591       -0.4776449354
 O          2.9078312263       -4.6296894317        1.0512925041
 H          2.9481174542       -3.7435071069        1.4579708864
 H          3.1537740496       -4.4823880821        0.1255868301
 O         -1.4662402510        0.8648649492        6.1107054593
 H         -0.6800109829        1.4179489408        6.2138616888
 H         -1.1579542578       -0.0550159391        6.1173801113
 O          0.5087077473        0.3103032237        3.6672436674
 H          0.7728526254       -0.6177462399        3.7533071377
 H          1.1791540907        0.8147983456        4.1299167614
 O         -1.2095263143        6.0944043875       -1.8338299819
 H         -1.8750864208        5.3845253039       -1.8111365252
 H         -1.0591048280        6.3198314997       -0.9066353208
 O         -3.6004375997        1.0284810831       -4.2189305899
 H         -2.8563243315        0.5874321365       -3.7314492620
 H         -4.2921002403        1.1378520724       -3.5558975799
 O          3.4248471501       -3.6316517579       -1.5464425222
 H          2.6732485754       -3.9307265631       -2.0861171539
 H          4.0520474476       -3.2500016385       -2.1939744163
 O          0.2894139229        1.4512624619       -3.9070671096
 H          0.5925367172        1.1562410766       -4.7743207627
 H         -0.3896346463        2.1354137155       -4.0618051303
 O         -2.4615603328       -2.4433834882        4.1689105267
 H         -1.9146132948       -2.1655762515        4.9233850876
 H         -2.2607699146       -1.7909804094        3.4426969186
 O          0.8166488546        0.2732736420       -6.4092326316
 H          0.2321806326       -0.4362575189       -6.0552451611
 H          0.4328097062        0.5581358103       -7.2376983083
 O          3.4642070009        5.3484774263       -0.2740902472
 H          2.5331417437        5.1765000155       -0.0312560769
 H          3.5590865708        4.9360746334       -1.1441169068
 O          3.1006132463        3.7968486081       -2.5507117877
 H          2.2336316895        4.1058203480       -2.8575247386
 H          3.3908682798        3.1157573240       -3.1755697677
 O         -2.5256937112       -4.0142055654        0.6699996611
 H         -1.9684949162       -4.1890926373        1.4498398748
 H         -3.3641257504       -3.6275457870        0.9914674159
 O         -1.8355587557        3.1348652743       -4.1044012320
 H         -2.1273406732        3.4311653382       -3.2228804550
 H         -2.5085645116        2.4847871884       -4.3745149219
 O          4.8288268658       -2.1280941092       -3.3101489010
 H          4.9560374017       -1.3311420052       -2.7665783897
 H          4.2558902890       -1.8463765965       -4.0338805292
 O         -0.3754426602       -5.8704270905       -2.0236515986
 H         -0.1594765996       -5.9762379520       -1.0862727228
 H         -1.3036834833       -5.6167972521       -2.0731576359
 O         -3.3171108530       -1.7585753668       -4.6491038356
 H         -3.6031669408       -0.9010097530       -4.9857665272
 H         -3.5203404263       -1.7209718160       -3.6893557305
 O         -5.4268789198       -3.5935383276       -1.3057862733
 H         -5.0493408572       -2.7676280123       -1.6641390205
 H         -5.4005380271       -3.4793434575       -0.3473996059
 O         -4.6416987538        3.3481070715        1.5324999772
 H         -3.6674398678        3.4109315591        1.4410263859
 H         -4.8147113090        2.5703917824        2.0767416545
 O         -0.1952091043       -4.2748095842       -5.5411027508
 H         -1.0988969727       -4.4412573919       -5.1643050154
 H         -0.0878026924       -4.8950445260       -6.2608452895
 O          1.0572315474        4.3598065425        0.4747781545
 H          1.3495280533        3.8163771101        1.2254263526
 H          0.6913474587        3.7287095388       -0.1866089668
 O          1.3282080961       -4.1554295026       -3.2277959213
 H          0.9851232551       -4.1846436761       -4.1329395439
 H          0.7284966090       -4.7586446508       -2.7404923070
 O         -0.2767849899        3.4125766984        3.7395344838
 H          0.5152877396        3.2812498232        3.1935576599
 H         -0.0142050910        3.1754013868        4.6445308533
 O         -4.7403106120       -2.5882704293        1.2867335917
 H         -4.5638099990       -1.7110646297        0.8943206735
 H         -4.9382318469       -2.4052066328        2.2159907719
 O         -3.0529282985       -4.7186613141       -1.8752000740
 H         -4.0038946350       -4.4816450360       -1.8369828487
 H         -2.7764849857       -4.6466136093       -0.9438451830
 O          5.3846953453        2.5062998742        3.8988794839
 H          5.1958676120        3.1637541831        3.2109079562
 H          5.6280861258        1.7035009401        3.4222762043
 O          0.4202809337       -5.5705122032        0.6261325728
 H          1.3617074535       -5.3795511385        0.8238384920
 H         -0.0818846782       -5.3519536025        1.4179795323
 O          2.8743914876       -1.2526342990       -0.4426814162
 H          2.8925126890       -2.1349242991       -0.8710488748
 H          1.9547117128       -0.9219688048       -0.5230794330
 O          5.7146999802        1.9154815249       -0.0369181368
 H          5.2971510956        1.2708347771       -0.6683980800
 H          6.4460176159        2.3210546107       -0.5006125012
 O         -4.4614264713        0.0129859857        0.4640766793
 H         -5.1658283104        0.3571299508       -0.0916517247
 H         -4.5728952927        0.3866959859        1.3727960166
 O          4.1134751721        1.5839631528       -3.9086112099
 H          3.6012557865        0.8094071427       -4.2719122074
 H          4.8601950727        1.7072069152       -4.4937702722
 O          4.4923799155        3.7926875473        1.5842156320
 H          4.8549004266        3.1048959353        1.0005703712
 H          4.2042570187        4.5057270572        0.9606050390
 O         -5.5369044566        1.0059458184       -2.0383576765
 H         -5.4648442612        1.9147465840       -1.6764064498
 H         -6.4108878730        0.9225344816       -2.4198442463
 O          0.4851397783        4.5936571125       -3.2427545463
 H         -0.1203874113        4.3446370077       -3.9478523010
 H          0.0023063289        5.2772344334       -2.7219337371
 O          4.7453469683        0.1162589114       -1.7000069810
 H          4.4267085195        0.7130137787       -2.4060985275
 H          3.9262633256       -0.2247984109       -1.2536046217
 O          2.9544306882       -2.1193203618        2.0404539495
 H          3.0343293180       -1.6305583643        1.1858491294
 H          3.2924173455       -1.5491112053        2.7455048133
 O         -1.2530366412        5.9409992881        3.6671563935
 H         -2.1916094120        5.8621751730        3.8419520455
 H         -0.8892704536        5.0334047556        3.7155724221
 O          2.9619296497       -0.5688808456       -4.8321756612
 H          2.3145967797       -0.8670585033       -4.1372429117
 H          2.4047020687       -0.3072462846       -5.5762230019
 O          3.8275449016       -0.6018876524        4.2202809132
 H          3.4599821514        0.2686163611        4.4650829293
 H          4.6475307364       -0.4122103273        3.7508822943
 O         -5.4318097652        3.4350095704       -0.9339738932
 H         -6.0264194596        4.1817449894       -0.9968560486
 H         -5.1551442378        3.3809989229        0.0287054881
 O         -2.7611720987        3.8378751540       -1.6055106174
 H         -2.4432259828        3.5963427470       -0.7078168036
 H         -3.7219244630        3.7443102709       -1.5546696501
 O         -2.2334402735        1.5187206037        3.6531431117
 H         -1.6145852578        2.2465902698        3.4667942046
 H         -2.0289279711        1.2482712505        4.5775685972
