  84
       -142.49169218
 O          1.9435986045       -0.5490958718        2.2008067154
 H          1.2185003177       -0.4983864532        2.8475932483
 H          2.4987258295        0.2331619054        2.3735472983
 O          4.4931997221       -0.6206637092       -2.3508501880
 H          4.3018658262        0.3314901333       -2.1913987729
 H          5.1133225330       -0.6649651514       -3.0801811404
 O          4.0608947344        1.9498387376       -1.6629209293
 H          4.4311306068        1.7830491412       -0.7383527620
 H          4.5855929699        2.6637276905       -2.0286200740
 O         -0.2145522633       -0.3056661104        3.9138388745
 H         -0.7576411133       -1.0804496508        3.6559700386
 H         -0.0619130394       -0.3748057894        4.8579475199
 O         -5.1216773726        0.9279104931       -2.3800144146
 H         -5.6102543147        1.2055567774       -3.1561682197
 H         -4.2090176643        1.2384538222       -2.4931103131
 O         -1.4802983408       -2.5311070955        3.0723616552
 H         -1.8102433995       -3.2020627554        3.6720031625
 H         -0.8090556208       -2.9645217759        2.4904757297
 O          1.5078988617        2.2000769483       -0.8348231943
 H          0.8690592760        2.6725897740       -1.4063535507
 H          2.3937352724        2.2512296118       -1.2423842596
 O          4.8900317234       -1.3480659313        0.2909218766
 H          4.8019076934       -1.2189892358       -0.6710682125
 H          5.6772144407       -1.8760199961        0.4330280884
 O          2.2134073534       -2.0809286851       -1.9329627052
 H          2.4714124543       -2.6723523512       -1.1787506006
 H          3.0280263165       -1.6444499988       -2.2310607107
 O          4.9947246103        1.3698909609        0.6652400474
 H          4.4185736252        1.6216545737        1.4111577386
 H          5.0240244178        0.3973615683        0.6804338604
 O         -3.4895459701       -1.3617805163        1.4875409609
 H         -2.8424043599       -1.7810230324        2.0735119251
 H         -3.6954701806       -2.0119624746        0.7858937981
 O         -2.8507231853        3.0261817756        1.8346890932
 H         -3.7527877802        3.3109178945        1.9861423107
 H         -2.8919490132        2.2173286212        1.2839839606
 O         -3.8123327340       -3.1213950474       -0.5239880168
 H         -4.0722350859       -2.5673532670       -1.3262932059
 H         -4.4747307747       -3.8113118228       -0.4696987790
 O          0.2595024694       -3.7165547947        1.4445589459
 H          0.4283576109       -4.6390837086        1.6455982089
 H         -0.2611442165       -3.7240544491        0.5951995384
 O         -0.5413674981        3.5163123514       -1.9597190574
 H         -0.5349671953        4.2341023591       -2.5944060066
 H         -0.7709479310        3.9272536279       -1.0838209575
 O          2.7680666193       -3.1858223695        0.3615322520
 H          1.9650923775       -3.2349620397        0.9046689041
 H          3.3497475390       -2.5208497766        0.7549498357
 O         -1.1888941850       -3.7172854152       -0.7118333957
 H         -2.1525662876       -3.5613497988       -0.6542112676
 H         -0.9026066246       -3.3541712754       -1.5665566850
 O         -0.2055915428       -2.5900793675       -3.0284784649
 H          0.7197883526       -2.4390016044       -2.7599392359
 H         -0.1887236291       -3.2166401008       -3.7543025409
 O          1.4372370681        3.4212818704        1.6370252202
 H          0.7152372367        3.0677160166        2.2001328681
 H          1.3948384222        2.9841228938        0.7680994479
 O         -0.9771611531        4.5129385895        0.4275079417
 H         -0.1768619286        4.5423042764        0.9682314740
 H         -1.6716572954        4.1032424134        0.9717652928
 O         -2.2847583004       -0.8410852788       -3.8365102444
 H         -1.5222009520       -1.3641071128       -3.5570547507
 H         -2.2390811239        0.0165720724       -3.3841401748
 O         -0.4925445942        2.4441385541        3.1985910941
 H         -0.4972013624        1.5353465853        3.5246867568
 H         -1.3947615027        2.6657996333        2.9257009864
 O         -4.4963753791       -1.7357402470       -2.5758433967
 H         -4.8890296804       -0.8673827784       -2.3711874967
 H         -3.7352638452       -1.5318911004       -3.1579651301
 O          3.2374627588        1.8278951011        2.6759188355
 H          3.5597974074        2.1541385237        3.5166565271
 H          2.6161740552        2.5219929012        2.3221587666
 O         -2.3771636208        1.4545772433       -2.2698761309
 H         -1.7798997988        2.2201733739       -2.2740783571
 H         -2.5174543889        1.2278366071       -1.3332213984
 O         -2.4047088499        0.8365735233        0.3572037698
 H         -1.4424480011        0.6164963963        0.3390644826
 H         -2.8122690587        0.0328051906        0.7365075399
 O          0.1182543932        0.0627726505        0.2024130395
 H          0.6345418858        0.7004805622       -0.3101805802
 H          0.7437409595       -0.3042626504        0.8488055041
 O         -5.2229938614        1.6587979585        0.4781477549
 H         -4.8466420013        0.8729133634        0.8839131560
 H         -5.2587189233        1.4635696727       -0.4665617102
