  102
       -167.76463560
 H          1.5912299298       -1.2873343813       -0.3213395302
 C          1.8488633145       -0.2772809007        0.0075913089
 H          2.8304118533       -0.3017961242        0.4815807914
 C          0.8237257183        0.2249408142        1.0068153000
 H          1.0934850798        1.2196322650        1.3599739761
 H          0.7851311168       -0.4617643532        1.8508511729
 O          1.8647273295        0.5981202825       -1.1168218453
 H          2.6933719369        0.3911741534       -1.6300559829
 N         -0.5034824571        0.2820713590        0.3678846037
 H         -0.7499912419       -0.6861003867        0.0173037754
 H         -0.4751102427        0.9611265644       -0.4275621511
 H         -1.2280162757        0.5743377095        1.0609438919
 O         -2.0387260960       -1.2075694605       -2.7184461107
 H         -2.7497637870       -1.7854472840       -3.0458979187
 H         -1.7275210193       -1.6382261759       -1.8960407048
 O          0.5346579760       -0.5787511261       -3.2399259406
 H         -0.4329440400       -0.6994882974       -3.2330935431
 H          0.7628048011       -0.0545767351       -2.4507291386
 O         -0.4916747267        1.2902063588        4.2084652134
 H         -0.0636733085        1.9912722866        3.6684400617
 H         -0.6103780185        1.6517233099        5.0875225929
 O         -1.1174232932        4.1063768221        0.3893071260
 H         -2.0137868729        3.8350996800        0.6664564143
 H         -1.1459716730        5.0474683001        0.2107813576
 O         -4.7688591108        1.7466071574       -0.6769197006
 H         -4.0217402898        1.5301726537       -1.3318857663
 H         -5.4214236679        2.2152112961       -1.2007792641
 O         -2.3130169602        0.9818733673        2.2549864905
 H         -1.7514435851        1.0676388478        3.0525227239
 H         -2.7041362423        1.8491047905        2.0621215319
 O         -4.0629368371       -2.9699919933       -3.0473409899
 H         -4.3714688640       -3.1021166441       -2.1338369565
 H         -4.1218040025       -3.8158862171       -3.4918921196
 O          2.5270524125        0.7235480302       -4.5163861979
 H          2.4823289083        0.7935023819       -5.4704817623
 H          1.7682438415        0.1763254158       -4.2322525493
 O         -0.5440088066        2.2171549654       -1.5335760704
 H         -0.6478194976        2.9907652657       -0.9570504981
 H          0.1832843748        2.4374493256       -2.1670472267
 O          4.0882837136        1.1907843913        2.0372327180
 H          3.6934608693        2.0661397664        2.1650059155
 H          4.5995913740        1.2435783021        1.2155401054
 O          0.3730553057        3.2016748454        2.5816522482
 H          1.3075247099        3.4303075767        2.4401943768
 H         -0.1098061856        3.5343004483        1.8100959080
 O         -2.9301007140        1.2950327074       -2.3735686444
 H         -2.0799543319        1.7275674353       -2.1668103654
 H         -2.7044135228        0.3590267067       -2.5552224605
 O         -0.4057035037       -3.7729209708        2.6711488806
 H         -0.1712985031       -2.9681196572        3.1622800198
 H         -1.3220127093       -3.6642466569        2.3795989135
 O          0.9797488357       -3.6190242669        0.4779079099
 H          1.1030529598       -4.4874609741        0.0938542896
 H          0.5173295950       -3.7467378555        1.3552727426
 O         -4.0673266732       -1.1163989995        2.4474783461
 H         -3.4430706920       -0.3720495917        2.4664592230
 H         -4.7115912987       -0.9141260368        1.7532480412
 O         -2.8058200439       -3.1442810130        1.3254111643
 H         -3.2289401537       -2.4310763179        1.8636166835
 H         -3.5113945097       -3.4722175600        0.7508502590
 O          1.4824797981        2.8971075501       -3.0895940509
 H          1.9204670054        2.2062554155       -3.6142363469
 H          2.1314525783        3.2094529421       -2.4441864318
 O         -1.0822354790       -2.1869437081       -0.4162094131
 H         -0.2675794536       -2.7246086002       -0.2956829250
 H         -1.7343268371       -2.5556750125        0.2297810252
 O          5.2832714838        1.5783282466       -0.4948822041
 H          6.2364838432        1.6222354212       -0.5762298091
 H          4.9729233960        0.9436671046       -1.1741685942
 O          0.4664482154       -1.3495161685        3.6714140074
 H          1.4345215389       -1.3155912526        3.7142292341
 H          0.1356753770       -0.5213774226        4.0424700969
 O          3.2271464717       -1.0321717118        3.3050208060
 H          3.8917348094       -1.2417161433        3.9631428319
 H          3.5217015436       -0.2054166074        2.8717049007
 O          4.1077790341        0.0070147740       -2.3217984589
 H          4.1377206955       -0.9783978146       -2.1284476639
 H          3.8903702969        0.1250930344       -3.2552359157
 O         -5.7154633022       -0.6098091349        0.2389177601
 H         -5.3310817532        0.2171420744       -0.1263489048
 H         -6.6536535245       -0.4536179447        0.3570050045
 O         -4.9887576612       -3.1892417864       -0.4374835399
 H         -5.7716339521       -3.7112518986       -0.2538018758
 H         -5.2133358159       -2.2618909071       -0.2334355249
 O         -3.5585577806        3.2040459247        1.2052016478
 H         -4.2370677046        3.7009131407        1.6645768438
 H         -4.0117376691        2.6706535166        0.5079804584
 O          3.5401724578       -2.7151221224        1.0430169566
 H          3.4829975255       -2.2075916492        1.8649864230
 H          2.6523591586       -3.0843947136        0.9041653626
 O          2.9690561414        3.0359451798       -0.6927047195
 H          3.8910056012        2.7296265029       -0.7181068445
 H          2.4392614099        2.2103171911       -0.7178894514
 O          3.9571977767       -2.4768476740       -1.6560329533
 H          3.0611871372       -2.7769058994       -1.8975918028
 H          4.0079746348       -2.5768362080       -0.6882629537
 O          1.3775503925       -3.0271075095       -2.4350191074
 H          1.0686848358       -2.1660475642       -2.7854857113
 H          1.3284185547       -3.6526197857       -3.1577006697
 O          2.9375751002        3.7325157789        1.8522974188
 H          2.9105509741        3.5897743386        0.8718336233
 H          3.4303379307        4.5386174015        2.0070585846
