  384
       -651.78586160
 O          1.9548932115        1.5206600818       -2.1863361062
 H          2.9128465743        1.7111025578       -2.2416537520
 H          1.6327948202        2.1715873018       -1.5263730315
 O          4.4614852822        2.4177387429       -2.2891623816
 H          5.1450023978        2.1711585196       -2.9319440424
 H          4.9505408256        2.4747768084       -1.4413957866
 O          0.4785630120       -4.5513560654        3.7677318802
 H          1.3548406794       -4.4341521452        4.1637601791
 H          0.6279744296       -4.4643888894        2.8006361078
 O          1.2038922127       -2.4762506743       -1.2193215620
 H          0.3896928806       -2.9506402388       -0.9451751209
 H          1.7656544924       -3.1472530636       -1.6277140939
 O          1.3876354362        5.6873265996       -2.0698746582
 H          0.6761122248        5.3414208615       -2.6628728181
 H          2.2166531913        5.4869779358       -2.5530610016
 O         -5.8531819545       -1.5493067036        0.6414376832
 H         -6.3522275190       -0.8421482026        0.1921645267
 H         -6.1458010042       -2.4163636087        0.2814690269
 O          6.8470373866        1.6862645021       -3.4716904620
 H          6.7743640046        1.6382396933       -4.4253356990
 H          6.5479735135        0.7971895372       -3.1299228820
 O         -2.3564884797       -2.3379764703       -2.7806287585
 H         -1.8378490945       -2.8561787435       -2.1406678054
 H         -1.7310690992       -1.8718085322       -3.3522253757
 O          1.4234742644        3.5027952925       -0.5242815379
 H          1.4150765168        4.3230950517       -1.0602700268
 H          0.6014563129        3.5115789445       -0.0025952846
 O         -1.1011021453       -3.7342416954       -0.7739298340
 H         -1.3409364998       -3.5162389131        0.1471254522
 H         -0.9477226582       -4.6877372827       -0.7751007350
 O         -4.8664443909        0.8688577063       -2.0200224855
 H         -5.6566555408        0.3117811652       -1.9464416203
 H         -5.0776958728        1.5886853310       -2.6449201724
 O         -1.2022161193        2.6974838879       -1.5126932894
 H         -1.6464994140        2.0298645823       -2.1085605382
 H         -1.8948865990        3.2621978254       -1.1290444509
 O         -1.7503908248       -5.7577784992        2.5832757265
 H         -1.6353628104       -4.8241139298        2.2577333505
 H         -1.1224209474       -5.8228884910        3.3102748208
 O         -1.6426930931       -3.2572961192        1.8243776085
 H         -0.8415279739       -2.7391929205        2.0928913202
 H         -2.3733798488       -2.8996123078        2.3556710986
 O          6.1388776088       -2.2789102149        0.3405084032
 H          5.4262348782       -2.2013397906       -0.3074708970
 H          6.5711747855       -3.1438995278        0.1902109446
 O         -0.6841757952        3.6428103315        1.0847161253
 H         -1.5111995078        3.2136126094        1.4045580334
 H         -0.7312014020        4.5541994390        1.4094571989
 O         -3.5727576347       -2.8350521244        3.7062731834
 H         -3.8338458457       -3.7583054966        3.7390425291
 H         -2.7548616971       -2.7567969669        4.2620464450
 O          2.8176713728       -2.4165124273        2.1488588316
 H          3.5581183631       -1.7830009521        2.2610929796
 H          3.0905499182       -3.0741445510        1.4744949548
 O         -3.4069281274        4.0060462020        6.3161101751
 H         -4.1805143245        3.4274426442        6.3232396322
 H         -3.4489082240        4.5116206511        5.4969731824
 O          0.2094786781       -0.5689877486       -2.8902149497
 H          0.5692624202       -1.3244741964       -2.3829328457
 H          0.7870647819        0.1803720582       -2.6941300964
 O          7.1328557669       -1.9546766646        4.3478836853
 H          6.5961035760       -2.7269639034        4.0797349750
 H          6.5843482299       -1.4770001626        4.9822020205
 O         -0.3747600643        1.3340716500        2.9001499889
 H         -0.6206868529        2.2169807577        3.2186714165
 H         -1.1062264934        0.7447496906        3.1654040532
 O         -7.3506880255        0.8097654549        4.2061530332
 H         -7.8465484653        0.1596036414        4.7031189886
 H         -6.7497233818        1.2835541546        4.8336233586
 O          3.2346470527       -0.8830934920       -2.9673566716
 H          2.8101110429       -0.3764254421       -2.2670281716
 H          3.7390950141       -1.5975627572       -2.5339033347
 O          5.6010517824       -4.1672223396        3.9611250198
 H          5.8749809558       -4.8466098741        4.5776634123
 H          4.6322910166       -4.0120622162        4.1334527366
 O          1.2311246933        2.6323176271       -4.4842179971
 H          1.4810394324        2.1729875532       -3.6484773742
 H          2.0679291236        2.9022806378       -4.9042968801
 O         -5.8267280773       -6.0617755558       -1.5081660578
 H         -6.1830108823       -5.3408775121       -0.9605698535
 H         -5.9138637511       -5.7459830728       -2.4233600251
 O          4.5739626475       -0.0812087540       -0.4039188332
 H          3.6104012182       -0.1168873579       -0.2382060828
 H          4.8816770890        0.7797809225       -0.0919142445
 O         -4.7461353685        2.5924280642       -0.0191128505
 H         -4.7973072459        1.8767358809       -0.6965999872
 H         -5.6507862369        2.8804154357        0.1808004263
 O         -1.4825757826        0.3835592703        6.5488684676
 H         -0.7840244555       -0.0301068585        6.0143982169
 H         -1.2607921079        1.3375000358        6.5690540499
 O         -5.3677958279        0.8845099918        2.1998583875
 H         -5.9464836531        0.8667141735        1.4174078607
 H         -5.8470523852        0.4221463225        2.8997244567
 O          2.8586041476       -1.5186045757        6.0509585703
 H          3.6209111660       -1.0120588527        5.6672936051
 H          2.9185543744       -1.4372043661        7.0020710094
 O         -0.7924449576       -3.4251969392       -6.1688580298
 H         -0.4166634308       -3.5505615464       -5.2601085638
 H         -0.0860413972       -3.6071930819       -6.7870357338
 O         -0.9672910683        3.8734075239        3.8439935827
 H         -1.8940830997        4.1744643878        3.6924691102
 H         -0.4063610598        4.6392996966        3.7057241301
 O         -8.2246308168       -3.3383221204       -4.0837089961
 H         -7.4435374519       -3.9196325349       -4.0804137656
 H         -7.9166503882       -2.4959019004       -4.4613279655
 O          0.7670222108       -6.4893299713       -2.2050530432
 H          0.4418494053       -6.7300177216       -1.3300214108
 H         -0.0255730169       -6.4129109131       -2.7565127288
 O          6.0252333093       -0.5921866147       -2.5318421805
 H          5.4500636173       -0.4015429056       -1.7531785083
 H          6.8366794524       -1.0093407307       -2.1868075683
 O          1.5870667970        2.0457982928        5.0006402716
 H          1.4927757299        2.5056104379        4.1331265077
 H          0.9790126323        2.4622707924        5.6200495652
 O          3.8068953464        3.7701039688        0.6936765672
 H          4.3273443909        4.2990752976        0.0543460797
 H          2.9117310284        3.6536529118        0.3219553714
 O          1.9995416605       -0.3004536981        0.0852169382
 H          2.0742190295       -0.2653163373        1.0800776301
 H          1.7521879050       -1.2074085713       -0.1743800090
 O         -0.7655620148        6.2577628823        1.9898738041
 H         -0.7984288680        6.5025777314        1.0370819628
 H         -1.5632177892        6.6033352642        2.3929814733
 O          8.3653103778       -1.7371007878       -1.9397533085
 H          8.8727952216       -0.9623861276       -2.2729690341
 H          8.8273015510       -2.0676788857       -1.1530960484
 O         -4.4106905632       -5.5042973643        2.3412727593
 H         -3.4620784376       -5.6942948908        2.5146419054
 H         -4.7136870636       -6.2210176764        1.7792900080
 O         -7.5878139969        2.4880211977       -1.8727589145
 H         -8.2106071719        1.9679479692       -2.4302000739
 H         -6.8961296952        2.7880099717       -2.4834062424
 O          7.3352013627        4.1448776445       -1.9843609467
 H          7.9227232564        3.9299021695       -1.2434180081
 H          7.1668215651        3.3170606560       -2.4514215648
 O          3.6794655226        3.1934376142       -5.5152921873
 H          3.7309133019        3.2211462774       -6.4703311401
 H          4.0256268616        2.3057247665       -5.2470455107
 O         -4.8504625830       -2.7615316265       -2.0259581623
 H         -4.6747424911       -3.2048937122       -1.1748458855
 H         -3.9811920968       -2.4723580695       -2.3590230613
 O         -2.9027797387        2.5622897031        1.9940714630
 H         -2.9258137984        1.7194221579        2.4860639708
 H         -3.6404056839        2.5370769355        1.3666274503
 O         -0.0623063433       -3.6390052858       -3.6438725369
 H         -0.6354304985       -4.3906033451       -3.3951758016
 H          0.8378688352       -3.8847700420       -3.3850995579
 O         -3.5845724634        6.3906576178        1.0742393948
 H         -4.5592835384        6.3171281061        0.9805402396
 H         -3.3288475726        7.2210488014        0.6685989009
 O         -3.1764757329       -4.0662893330       -4.7976950966
 H         -2.5702815906       -3.9032018298       -5.5296330199
 H         -2.9638972987       -3.3883872341       -4.1256222616
 O          0.8940993589       -4.5287669339        1.0962650746
 H          1.8211537120       -4.5210282711        0.8154299548
 H          0.4984282749       -5.3241483547        0.7255424606
 O         -2.6794369409        0.1393736967        3.1952429368
 H         -2.9579634682       -0.4601054504        2.4803431850
 H         -3.2100586245       -0.0485910288        3.9856378994
 O         -5.4982644262        2.9547893276       -3.6062571834
 H         -4.7908811461        3.6117626498       -3.6544827070
 H         -5.4963852753        2.4757098207       -4.4619890756
 O         -8.7796075052       -2.7756664264       -1.5761875340
 H         -9.5598916228       -2.2065420043       -1.5462655022
 H         -8.6836029683       -3.0890325874       -2.5134609497
 O          4.2630027843        2.5184827327        4.6510528052
 H          3.3350851039        2.3397436324        4.8971497791
 H          4.2632021488        3.4183029333        4.2567564805
 O         -5.4706754953        3.3279423478        3.0973091607
 H         -5.3563790911        2.4213704497        2.7004407323
 H         -6.1085566379        3.7878977979        2.5505936477
 O         -6.2081488269        6.1079299234        0.6457560976
 H         -6.5946513565        5.2112022176        0.6240336759
 H         -6.6677708297        6.6188432755       -0.0202878635
 O        -10.4271786939       -0.5740612872       -1.3419567696
 H        -11.3750045014       -0.4436537540       -1.3754649767
 H        -10.1347137621       -0.3002697930       -0.4521619725
 O          7.4612944420        0.0498255487        0.3645413089
 H          7.0544831971       -0.8249846079        0.2073642281
 H          7.4323737509        0.1711090256        1.3387655441
 O         -3.1192470274        4.4702707652       -0.8109239492
 H         -3.1974674740        5.1367993816       -0.1056168341
 H         -3.7743393719        3.7743294101       -0.5593724250
 O          4.3393807976        4.7524543891        3.1412581389
 H          4.0664396891        4.3942714316        2.2673505331
 H          3.7055510523        5.4503402484        3.3282926210
 O         -1.5714035776       -1.0374672597       -5.1353141579
 H         -1.0794278933       -0.2851527935       -5.5194898972
 H         -1.3653721002       -1.8131321667       -5.6810549935
 O         -3.1676184706        4.5349464000       -3.5571238973
 H         -2.2209867877        4.7072570342       -3.7045825081
 H         -3.2636407009        4.5763778077       -2.5890402236
 O          3.5907520976        4.7431398806       -3.2306139259
 H          3.6650019484        4.6023721025       -4.1807687222
 H          3.8369935124        3.8721030633       -2.8390774898
 O          5.0244872656       -0.9902431587        2.4208290428
 H          5.5237612288       -1.4815773611        1.7435054671
 H          4.9142755870       -0.0824822191        2.0875106427
 O         -0.9251214076        6.5259837049       -0.6521826651
 H         -1.4375222941        5.7729426697       -0.9669174198
 H         -0.0754222078        6.4877586169       -1.1084702503
 O         -8.6983988970        2.3701116682        2.5385697379
 H         -9.1790148203        2.9658314507        3.1133430252
 H         -8.1483493755        1.7965657586        3.1282566140
 O         10.3269257089        0.3426985190        2.4973303341
 H         10.2603867043        0.6425660292        1.5557020042
 H         11.0977404253        0.7661677801        2.8733541181
 O          5.5184431657       -5.5301155384        1.5580651309
 H          6.2773434643       -5.3550230562        0.9854677053
 H          5.6492557283       -5.0202724012        2.3761361451
 O          3.0479147402       -3.6950802344        4.4067148733
 H          2.9570851943       -3.0098649410        5.0886512695
 H          2.9037206716       -3.2164981490        3.5451843097
 O         -8.7635208627       -1.6577592292        3.0138660805
 H         -7.8175041433       -1.5425720111        3.1994649292
 H         -8.8863872210       -2.5989852260        2.8715951037
 O          0.2715375078       -1.6250159965        2.4002814558
 H          0.3237318288       -1.1676856561        3.2536331449
 H          1.1710671253       -1.9611160322        2.2406865107
 O         -2.6823682018        2.4095960104       -5.3356564468
 H         -3.5176068692        2.1183741389       -5.7248352205
 H         -2.8785313257        3.2143038515       -4.8309825004
 O         -3.2304102968       -5.9726702046       -1.0646459689
 H         -4.1635430391       -6.2063767088       -1.2763381900
 H         -3.3095806905       -5.0958577403       -0.6408373928
 O          4.9256356872       -0.2571159629        5.0042732305
 H          4.9300850629       -0.5494261282        4.0690513672
 H          4.7529180502        0.6928626859        4.9815337222
 O          1.9191064784        5.9397079343        2.5293595948
 H          2.3369080327        6.2260363448        1.6907624068
 H          1.0043040402        6.2425169765        2.4630257625
 O         -5.7618559528       -4.5302150308       -3.8077804506
 H         -5.0224975884       -4.5877858550       -4.4255124854
 H         -5.4771503391       -3.8519088055       -3.1565731180
 O         -1.2468019800       -2.7963623953        4.8993811804
 H         -0.7458352296       -1.9759965083        4.9594361713
 H         -0.6372660283       -3.4553984258        4.5023901563
 O          6.0651680426        2.2598169090       -0.1867617694
 H          6.6765841167        1.5081456554       -0.0833331621
 H          6.2215641231        2.8528572493        0.5665213013
 O          1.6364104668       -1.7573211739       -4.9505708974
 H          2.2278780398       -1.4482982792       -4.2319464084
 H          0.7455310465       -1.6327935164       -4.5929998063
 O          0.5706060242       -0.5231031215        4.9470300885
 H          1.3344980382       -0.9839635250        5.3362306821
 H          0.8949991931        0.3911597674        4.8129052764
 O         -5.4806695492        2.1172184903        5.5552184924
 H         -4.8286717212        1.3880785955        5.5615919731
 H         -5.3414898361        2.6261937660        4.7378708754
 O         -3.8500911409       -0.0608994872        5.5949591615
 H         -2.9584416396        0.1343251382        6.0074340591
 H         -4.1578158808       -0.8679214850        6.0062090118
 O          3.5216247909       -4.2744768376        0.4182449643
 H          4.2102418950       -4.8452892886        0.8355503612
 H          3.9304513047       -3.8554304784       -0.3539615014
 O         -7.2459899653        3.6117075078        0.5720960281
 H         -7.8014681897        3.1364340669        1.2188907537
 H         -7.5611480351        3.3418924448       -0.3096723535
 O          2.4305768826       -4.4625816876       -2.7551472045
 H          2.0237103345       -5.3270218578       -2.5490358055
 H          2.7699388157       -4.4776391322       -3.6841553755
 O         -3.9114928140       -3.7481416675        0.2650258783
 H         -4.2174457522       -4.2051800199        1.0637370031
 H         -3.4496415129       -2.9392148451        0.5398980081
 O         -9.0588590518        0.8497953244       -3.3506849937
 H         -8.5422390068        0.2895555841       -3.9412212444
 H         -9.5300915677        0.2633475622       -2.7383801395
 O         -0.4526998930        4.3852123432       -3.4086113049
 H         -0.6699128526        3.7584695987       -2.6749652235
 H          0.1055470351        3.8476544411       -4.0048700442
 O         -6.9832757039       -4.2235483147        2.6202630393
 H         -6.6515882675       -3.3610829909        2.9458605619
 H         -6.2444761942       -4.8324699604        2.7232774171
 O          1.6435063555        3.2513179260        2.6147156745
 H          1.8643170023        4.2007746172        2.6408284586
 H          0.8406490885        3.1939916776        2.0758802705
 O          4.4909564540        1.6155147457        2.0895812738
 H          4.2785875484        2.3742582691        1.5112354842
 H          4.5637648169        1.9714600688        2.9906315966
 O          7.3742189184       -4.5658775265       -0.2911975029
 H          7.2316227832       -4.6161628086       -1.2447694062
 H          8.2616101400       -4.1848361858       -0.1570619197
 O          5.1268002548        5.3461712075       -1.0303528964
 H          4.6464524345        5.3866428100       -1.8705190765
 H          5.9970672899        4.9657366613       -1.2778623609
 O          4.4886087371       -3.0317647713       -1.8380300878
 H          5.3426020636       -3.3030879554       -2.2415746537
 H          3.8128487836       -3.6206833092       -2.2258655527
 O          9.4798868056       -2.3012368308        2.6896280124
 H          9.8664005788       -1.4114281478        2.7032328542
 H          8.7358364976       -2.2986797576        3.3045728410
 O          5.4340774727       -2.0979449285       -4.7418165245
 H          5.5512872942       -1.5587836475       -3.9333215133
 H          5.2936214821       -1.4620668379       -5.4464042072
 O          8.8763776256        3.7551393065        0.3157874541
 H          8.1210041189        3.8340841674        0.9425921849
 H          9.4294953019        4.5236797396        0.4537259302
 O          9.5724018132       -3.0452850398        0.1625890082
 H          9.4668899045       -2.7721752035        1.1065877380
 H         10.4816135403       -3.3293400328        0.0688328042
 O         -3.3713213719        4.9547131183        3.5076262470
 H         -4.0482858537        4.2633326494        3.3542919008
 H         -3.4002720858        5.4915924507        2.7056806835
 O          9.8066286333        1.1927669638        0.0254553786
 H          8.9568879583        0.6961827950        0.0625083708
 H          9.5577914872        2.1286784446        0.1268161203
 O          2.3267835671        0.1508413339       -6.6866370706
 H          1.5157339081        0.6528515192       -6.8194814797
 H          2.0384855200       -0.6418407932       -6.1883479315
 O         -7.1224311140        0.7319459170        0.1266825110
 H         -8.0119915376        0.4787050753        0.4361597546
 H         -7.2534669585        1.2751562134       -0.6728547314
 O          6.7606452721        3.8823794923        1.9241504561
 H          6.1211203807        4.5694068785        2.1400345140
 H          6.9345322820        3.4257958653        2.7863347943
 O          7.6414358401        0.3098741313        2.9928029280
 H          8.6107087040        0.3730381410        2.9963564887
 H          7.4022233404       -0.5346219094        3.4273329264
 O         -1.7053427802       -5.7335571549       -3.2493186151
 H         -2.3029007079       -5.3803154398       -3.9337408079
 H         -2.2771314029       -5.8614156187       -2.4631526079
 O         -6.8453288239       -3.9121520514       -0.0549128652
 H         -7.6578104824       -3.6605394402       -0.5242459672
 H         -7.0778735673       -4.1370969062        0.8678987970
 O         -7.0085634192       -0.8966605079       -4.6059895103
 H         -6.1115215574       -1.1122092187       -4.8842219212
 H         -6.9396490997       -0.8701262070       -3.6208345489
 O         -9.5294119814        0.1230831596        1.1512876797
 H         -9.5170348588        0.9588813714        1.6424908543
 H         -9.3288450353       -0.5747659247        1.8118517660
 O          4.3345296264        0.6857311720       -4.9801550608
 H          4.0272610594        0.2214036102       -4.1801400849
 H          3.6750907427        0.4575889489       -5.6694862064
 O         -0.8410269752        2.9944434757        6.3644242195
 H         -1.6421707634        3.3795507283        6.7495683353
 H         -0.8964878465        3.2741992788        5.4278214500
 O          6.8393075096       -3.7217239799       -2.9309431260
 H          7.4789781093       -3.0241499275       -2.6826508539
 H          6.5998491385       -3.5435575256       -3.8472845355
 O          3.3206735845       -3.8852375485       -5.1391308659
 H          2.6361766919       -3.2076023381       -5.2798004809
 H          4.1452151540       -3.3827228201       -5.0328495214
 O          7.0634377469        2.6282694995        4.2173369189
 H          6.1989715112        2.6160163944        4.6420524816
 H          7.2158272896        1.7330269066        3.8565957367
 O          2.9232948275        6.6641896397        0.1400244258
 H          3.8197216888        6.4107140259       -0.1164334310
 H          2.3635453426        6.4894509954       -0.6251480259
 O         -5.2093719894        1.3703581653       -5.7374830569
 H         -4.8365009127        0.5772542092       -5.2598917682
 H         -6.0175714018        1.0714151313       -6.1560450836
 O         -0.3185363850        1.1597004894       -6.0924600477
 H          0.2511186904        1.6454236176       -5.4602518061
 H         -1.1301170484        1.6813876536       -6.1380181682
 O         -4.1753220925       -0.6282962082       -4.3924665466
 H         -4.0614949382       -0.2298549124       -3.5134178611
 H         -3.2698264742       -0.8223274989       -4.7041684389
 O         -6.0183994675       -1.7578722154        3.2493750710
 H         -5.1252745253       -1.9802718014        3.5607544373
 H         -5.9163549042       -1.6049323794        2.2789433972
 O         -2.1270703256        0.9186091054       -3.1145012677
 H         -2.2670723733        1.3528517490       -3.9757756835
 H         -1.3814532639        0.3064233457       -3.2198771878
 O          9.3973645439        0.6002039938       -2.6661168160
 H          9.7299233498        0.9271690570       -1.8139203641
 H          8.6456843695        1.1571583732       -2.9149854698
 O         -6.8073342864       -1.0341627164       -1.9851879628
 H         -6.0595443094       -1.6769988293       -1.9951768927
 H         -7.5896175848       -1.5776514305       -1.7488800977
 O          2.2030816515        0.2988740670        2.5864820862
 H          1.3998435156        0.8100117597        2.7525744353
 H          2.9380864496        0.9246132139        2.4700317530
 O         -0.8698988240       -6.5063615309        0.1067868889
 H         -1.7120448009       -6.5797088519       -0.3755216753
 H         -1.1390282218       -6.4631213174        1.0427418871
 O         -3.1191386226       -0.7908260795        0.7497381834
 H         -2.2743367800       -0.3559906000        0.4786896585
 H         -3.8129127274       -0.2076481904        0.4343054266
 O         -0.8900871395        0.5272292126        0.2050654862
 H         -0.7820501659        1.3021049075       -0.3590669109
 H         -0.4791450988        0.7294137910        1.0534688630
 O          3.0458557770        0.9897586905        7.3230816627
 H          3.8851600842        1.4080286629        7.1277763629
 H          2.4421307395        1.2322401596        6.6104807900
