  252
       -422.41070563
 H         -0.8774634575        1.4132951409       -1.0367675841
 C          0.1136882407        1.4353154429       -0.5838831600
 H          0.7250941074        2.1956383371       -1.0714784891
 C          0.7623365517        0.0733668457       -0.7056717288
 H          0.8287876888       -0.1960346504       -1.7522058843
 H          0.1695824399       -0.6762721196       -0.1843913558
 O         -0.0065684115        1.8292091455        0.7783699450
 H         -0.2436410098        1.0105027685        1.2968054127
 N          2.1167830309        0.1040881980       -0.1404902338
 H          2.1139490422        0.5089702810        0.8158341656
 H          2.7478774759        0.6142461076       -0.7949602617
 H          2.4594377323       -0.8761862722       -0.0441736427
 O          3.1823030747        4.0483230415        3.7237041558
 H          2.8703690509        3.5797644807        2.9163321719
 H          2.4349490237        4.5726561788        4.0223874301
 O          2.3304204900        3.0653165655        1.4072714101
 H          1.4963221633        2.5914389522        1.2314726577
 H          2.2165179988        3.9605795296        1.0295060710
 O          0.3413858347        2.2889444488        3.7333870912
 H          0.5259756858        3.2296472558        3.5385988954
 H          0.9923735652        1.7321771912        3.2514799519
 O         -3.9587010069        0.1791570699       -1.0766093274
 H         -4.8108712045        0.3029035927       -0.6226170695
 H         -3.4632792039        1.0077909115       -0.8808955183
 O         -3.3758744086       -3.9004469688        1.0891708448
 H         -3.1492727677       -2.9443546434        1.1035738575
 H         -3.7544261751       -4.0723593405        1.9638635587
 O         -3.2435712885       -2.4334452017       -1.6736032946
 H         -3.0171726069       -3.2455463228       -2.1829933870
 H         -4.0869839109       -2.6361288611       -1.2405642628
 O          4.8325661829       -0.8777887388        0.2681198763
 H          5.7744095089       -0.8826197174        0.0359837352
 H          4.6258484340        0.0703320325        0.3820995509
 O          5.7626386339       -3.0666122400       -2.9673012752
 H          5.7545966522       -2.0943564931       -2.8894615160
 H          6.3487336151       -3.3696984351       -2.2632299583
 O         -1.5831524811       -0.5415405172       -2.5791386824
 H         -1.8869335625        0.3694936942       -2.7314838750
 H         -2.2573388351       -0.9959959212       -2.0469439465
 O          4.0991369146        5.3368549830       -0.7175877399
 H          3.4796079632        4.6424128784       -1.0468701603
 H          4.9131969304        5.1705222979       -1.1988852375
 O         -2.8207162394        2.4145874984       -0.2139688015
 H         -3.0265916038        3.1532832234       -0.8048181620
 H         -3.4504414442        2.5444736199        0.5398963206
 O          4.9261731668       -2.0457872023        2.6621600181
 H          4.5876362393       -1.3786635372        3.2901441766
 H          4.8004713308       -1.6477619403        1.7660563541
 O         -3.9905241921        0.3387553416        3.2359447634
 H         -3.5367642722        1.1718879477        3.0113220626
 H         -4.9090055365        0.5728240065        3.4502780542
 O         -2.2176287244        4.8549765785        2.2810454000
 H         -3.0914975508        5.2320510761        2.3780100439
 H         -2.3158568949        3.8908260246        2.4826956359
 O          5.6682949012        1.7295951797       -4.1902654815
 H          4.8815926088        1.3203066709       -4.6398138535
 H          6.1892641353        2.1306477380       -4.8850325698
 O         -6.7545405767       -1.7450352359       -2.1741694777
 H         -6.3786351114       -2.3632623873       -1.5310696677
 H         -6.0358562787       -1.5121773172       -2.7872270270
 O          8.0319427095        2.0468573933       -0.7435604699
 H          7.9052207784        2.5371602625        0.1310731336
 H          8.8948082051        2.3094719375       -1.0633013034
 O         -4.6204236804       -0.7374982350       -3.5694135446
 H         -4.2529314650       -0.5375414732       -2.6803037112
 H         -3.9090765982       -1.1560892402       -4.0876168094
 O          1.7078096092        5.5893841635        0.7586432694
 H          2.4129014642        5.9041672960        0.1823305663
 H          0.9305537785        5.3761473780        0.2130079675
 O          4.6410270005       -4.0782704749        0.3238561990
 H          4.7253102227       -4.4933724309        1.1851212842
 H          5.5139236729       -3.7277833711        0.0768596133
 O         -2.1019795991        2.2342329700        2.6625681603
 H         -1.9370277108        2.0321620712        1.7321337358
 H         -1.2342342683        2.1620651672        3.1152589021
 O          7.5158915442       -0.5575084904       -0.2148783774
 H          7.6203132256       -0.6815430674        0.7675210489
 H          7.7940538795        0.3661866550       -0.3806731131
 O         -2.3071143029       -1.4572502760       -4.9608899114
 H         -1.9201692609       -1.1925805405       -4.0945253782
 H         -1.9419251469       -0.8274931925       -5.5898335214
 O          4.4683996872        1.7526192968        0.4832771558
 H          4.8635438537        2.2592968922       -0.2557250351
 H          3.7364941924        2.3027216517        0.8274365156
 O         -1.4228640078       -5.2428631639       -0.4107939406
 H         -0.8231892589       -5.7628808543        0.1263949975
 H         -2.1016510366       -4.8771852718        0.1818162935
 O          3.4483535345        1.0910285690       -2.2594419128
 H          4.2164625512        0.4991336347       -2.3316245578
 H          2.8107024572        0.8037195019       -2.9257858458
 O          1.3062927029        0.3378544833       -4.0282106540
 H          1.2238931077       -0.5980376733       -3.7526936131
 H          0.5588264789        0.4791537942       -4.6379123694
 O         -7.8356100433        2.2517414359        1.7114319203
 H         -7.4226185768        2.0034093772        2.5575647314
 H         -8.6331458312        1.7175017752        1.6174987649
 O          7.1609953842       -3.2486053375       -0.5174328415
 H          7.3786608674       -2.2994038491       -0.4829433726
 H          7.9248205097       -3.7129970082       -0.1741270063
 O          5.1844819225        4.4125549180        1.6191834205
 H          4.6211902982        4.5804090856        2.3800428977
 H          4.7550948748        4.8168587951        0.8431174743
 O         -0.6779407949        4.4664645587        0.0796054488
 H         -0.4985837276        3.5421487938        0.3155524649
 H         -1.3059784290        4.7726056616        0.7596311784
 O          4.8325456388        2.3199217306        4.8830070975
 H          5.3983366620        2.7882237124        5.4965432403
 H          4.2041137104        2.9793067088        4.5117703317
 O          2.4082820873        3.4881075745       -1.5552551387
 H          1.9253994455        3.6510035444       -2.3869927371
 H          3.0023451775        2.7470601403       -1.7562996301
 O          6.1088828770        1.4010104229        2.6079550222
 H          5.6777003412        1.7385300941        3.4084931009
 H          5.4894094474        1.5690978852        1.8650284439
 O         -2.6240260101       -4.7353441207       -2.7957358355
 H         -2.0892399821       -4.6262280936       -3.6108182080
 H         -2.0518191700       -5.0867616581       -2.0937832696
 O         -4.9406945668        1.7514341974       -4.2614592840
 H         -4.8926425302        0.7725890282       -4.0802114764
 H         -5.2350811309        1.8587920921       -5.1651019723
 O          5.8165279237       -0.3637162627       -2.5152530860
 H          5.9970422932        0.3224133273       -3.1828908836
 H          6.4877839165       -0.2800478459       -1.8275726939
 O         -6.0813498206        2.4803952773       -1.8713454489
 H         -5.7682266816        2.2415289828       -2.7586416613
 H         -6.6631877301        1.7543885090       -1.5870709848
 O          3.6399351852       -4.6859867995       -2.2425885663
 H          3.9710148723       -4.7862450009       -1.3398161995
 H          4.2878360802       -4.0895297370       -2.6587700893
 O          3.7618438400       -2.2217664008       -4.7105577255
 H          4.5572908823       -2.7493271295       -4.5942432304
 H          3.0362139543       -2.8374208082       -4.9389794717
 O         -0.6240864931       -3.5037796314        2.1815162745
 H         -0.0899902258       -4.2704871577        1.8916371530
 H         -0.8442932341       -3.0237928965        1.3481923641
 O         -5.4606085239       -3.5546679303       -0.4940499665
 H         -4.7207253266       -3.8364292275        0.0976573039
 H         -5.5544049173       -4.2918306347       -1.1303847129
 O          1.9378949648        0.4992928524        2.5444782213
 H          2.7226617382        0.3148560200        3.1068538404
 H          1.3735575294       -0.2845216311        2.6231955133
 O          3.1276666015       -1.6797779641       -2.0310324130
 H          3.3833819193       -1.8479538940       -2.9500890898
 H          3.9313924858       -1.6772149253       -1.5030248161
 O         -4.6432756409       -3.5362289250        3.4722648937
 H         -3.7442036757       -3.3725334044        3.8811272364
 H         -5.1528261192       -4.0149883423        4.1245518253
 O         -3.0970514530       -1.2043701891        1.1441976656
 H         -3.3896963315       -0.7845465298        0.3136492929
 H         -3.5513386261       -0.7453700099        1.8750004700
 O          0.5422212604       -2.1116276936       -3.1506795285
 H         -0.2956622665       -1.7115434752       -2.8759775971
 H          0.8673886801       -2.6233402487       -2.3783754769
 O         -1.2851832469       -4.0817449223       -4.9989948909
 H         -1.6145415419       -3.1762407716       -5.1218337652
 H         -0.3344431721       -4.0730782915       -5.1648178284
 O          1.6326441191       -3.8964894921       -4.7862274871
 H          1.1900537270       -3.2324333987       -4.2162037206
 H          1.9593586181       -4.5807073684       -4.1955053513
 O         -8.1467272902       -0.9648140187        3.0590527803
 H         -8.7077276361       -0.6245018784        2.3445711731
 H         -7.4739625398       -1.5151725923        2.6153847663
 O         -0.9395366564       -2.4802910025       -0.2422824730
 H         -1.8278947668       -2.4564135819       -0.6404719949
 H         -0.4865000967       -3.2278485272       -0.6528586676
 O          1.4210858036       -2.2402782009        3.1754376090
 H          0.5538755949       -2.6178610218        2.8744370570
 H          1.9800757763       -3.0010983860        3.3934796540
 O          1.3369905557       -3.8005907913       -1.2254135909
 H          2.1087223703       -4.1661253198       -1.7073203618
 H          1.7285178491       -3.1348769442       -0.6195574647
 O          2.4995208583       -2.3916616276        0.6804934969
 H          3.3278163116       -2.8986080473        0.6538129288
 H          2.1851148168       -2.3197081018        1.6010324219
 O          1.1480612648       -5.2268744289        1.1340032220
 H          1.2266596404       -4.8385459024        0.2392811424
 H          1.9692016641       -5.0318928735        1.5966454219
 O         -6.4844004256        4.2049933468        0.2998830809
 H         -6.4845440777        3.6808747727       -0.5151767840
 H         -7.1754844791        3.8034540609        0.8451099487
 O         -7.9286444745        0.4454716652       -1.4317011828
 H         -7.4573099361       -0.4083607829       -1.6461135121
 H         -8.5383379446        0.5935776869       -2.1558304972
 O          3.8327333518       -0.1606729173        4.2587330690
 H          3.1532618103       -0.4717601477        4.9031027901
 H          4.2502254875        0.6256428997        4.6371991135
 O          1.7108975567       -0.9588821252        5.6071234640
 H          1.0316323087       -0.3060440209        5.8349433393
 H          1.3745720935       -1.4497544184        4.8386192966
 O         -4.1356356929        4.4614918133       -1.5389701296
 H         -4.7956753825        3.7894492660       -1.7705619454
 H         -4.5800095689        5.0354921431       -0.9104620809
 O          0.4854144468        4.9206669985        3.1701531219
 H         -0.4555958460        5.0794989655        3.0096122800
 H          0.9465628841        5.2753523781        2.3939654737
 O         -5.2183571197       -5.4093645743       -2.3965542533
 H         -4.2697611156       -5.2739631776       -2.5911430060
 H         -5.6523693932       -5.5564810712       -3.2363801436
 O         -0.8963512339        1.0061152543       -5.4923487023
 H         -0.6650213674        1.7429626561       -6.0586312011
 H         -1.4362579829        1.3697173179       -4.7545953155
 O          5.6054775979        2.9994823578       -1.6523213245
 H          6.5097397521        2.7370846393       -1.4141792828
 H          5.4419925225        2.6168851760       -2.5271123351
 O          7.6537612148        3.2816598861        1.4865366164
 H          6.8897859109        3.8834930374        1.4330368899
 H          7.3150789997        2.5532717284        2.0428287862
 O          7.4427463078       -0.9294246397        2.3725329192
 H          6.7127692615       -1.5367026327        2.5788691946
 H          7.0903365772       -0.0474547573        2.5984840404
 O          3.4021532209       -4.1728015744        3.0143392437
 H          4.0110855340       -3.3941977291        2.9164030444
 H          3.6646303620       -4.6285777305        3.8133113290
 O         -0.1815450736        1.0680447581        6.0169359064
 H          0.0430593951        1.6049044905        5.2219828807
 H         -0.1599056475        1.6532367627        6.7730255313
 O         -1.7594516530       -0.5754147648        4.4826894654
 H         -1.3872313794       -0.0011141298        5.1662343190
 H         -2.6281350094       -0.2238305684        4.2116558223
 O         -6.0698799161       -2.0146961922        1.7190206362
 H         -5.5046747075       -2.4521279079        2.3834172703
 H         -6.0545871399       -2.5848744011        0.9358124568
 O          3.6970250887        0.4420744773       -5.3621443987
 H          3.8565357314       -0.5123979220       -5.2745891169
 H          2.7988302526        0.5660232506       -5.0104642027
 O         -2.2285428232       -3.2435838011        4.3604941550
 H         -2.0375936451       -2.3081255740        4.5472507616
 H         -1.6733714298       -3.4606880071        3.5900966590
 O          0.8218516119        3.3082320845       -3.7208858546
 H          0.7785261875        2.3454076096       -3.7250239508
 H         -0.0268107281        3.6484879163       -3.4089177068
 O         -5.9035788879        0.5152193043        0.7345161905
 H         -5.9809462907       -0.3567044393        1.1629442421
 H         -6.7385274476        0.9899846120        0.8672631467
 O         -1.5332971179        4.2435675374       -2.4509121415
 H         -2.3840641741        4.6976074056       -2.4191050690
 H         -1.1609878593        4.3371643221       -1.5455533489
 O         -2.3395663064        1.9027164304       -3.4165285503
 H         -3.2741109335        1.9934484339       -3.6698750912
 H         -2.0572298092        2.7547573842       -3.0204399203
 O         -0.6696505014       -0.4006328234        2.0275134405
 H         -1.4237522373       -0.7972076413        1.5518942941
 H         -0.9399745447       -0.4332560261        2.9642582750
 O         -6.6210311173        1.0062112860        3.8490434310
 H         -7.1931099281        0.2199681664        3.6256654895
 H         -6.7726847032        1.1974988611        4.7740881731
 O         -4.6312704561        2.7689029156        1.6377207635
 H         -5.2477056781        3.4203245661        1.2506888975
 H         -5.0651182953        1.9085545432        1.4954950441
 O         -9.3916796598        0.1280148308        0.8261853585
 H         -8.8390171772        0.2044134167        0.0171201156
 H        -10.2554600371       -0.1792797445        0.5517131037
