  281
       -473.11914516
 H          2.8621572199        0.3052486780        1.3107724270
 C          2.0579564313        1.0266958247        1.1958898637
 H          2.3211365912        1.9336163918        1.7445045329
 C          0.7465368754        0.4454261968        1.7233008885
 H          0.9479235790       -0.1881825854        2.5811381984
 H          0.2972352711       -0.1550541142        0.9323288298
 N         -0.2389097239        1.4457061844        2.1213884404
 H         -0.0060140958        1.8177689243        3.0318766417
 H         -0.2338658238        2.2075426464        1.4516789437
 O          1.9884105339        1.3128872345       -0.1951012463
 H          1.2117853925        1.8950157888       -0.3447309811
 O          0.8859292033       -4.6449253684        2.3677823219
 H          0.8569744831       -4.0622963629        1.5938565059
 H          0.0379918860       -5.1071431746        2.3743503499
 O          5.2500868310        1.6514371256        5.1143915824
 H          5.8125146952        0.9239016041        4.7418066880
 H          5.6734850562        1.9059385435        5.9337035505
 O          4.3990330605       -3.3616291568       -2.4921840993
 H          5.3272765594       -3.4637098239       -2.2215383227
 H          4.0881699309       -2.5612634244       -2.0008611595
 O         -0.8957816269       -0.7006144127        4.0805199296
 H         -1.6793517817       -0.7995449112        4.6512116850
 H         -0.2933584208       -1.4576858776        4.2526672291
 O         -1.7699294408       -0.1801828800       -0.4032269712
 H         -1.5740139781       -1.0831742231       -0.7018347428
 H         -2.3494489744       -0.2452043801        0.3648117259
 O         -3.8892916680       -1.4191524706       -2.0613698576
 H         -3.0987325659       -1.0580435776       -2.5194020379
 H         -3.5453506956       -1.9003527399       -1.2864923801
 O          2.5932874385        1.4020098650        4.3927559791
 H          1.9141279127        1.2097449514        5.0721917065
 H          3.4556653650        1.4900432065        4.8269531842
 O          2.9800138413       -1.2616377043        3.7328925445
 H          3.1126877329       -1.3587825841        2.7748382788
 H          2.9162507649       -0.3069832617        3.8974295371
 O         -0.9672982243       -0.8940998956        7.5217488724
 H         -0.9831378880       -1.0826321760        8.4591252700
 H         -0.9139155842       -1.7763704453        7.0676414518
 O          0.5569895751       -2.7624362549        0.3643729139
 H         -0.2378806033       -2.5445152398        0.9027878503
 H          0.5542000718       -2.1042348743       -0.3797080128
 O         -7.6351294450        1.8853849993        2.5637136081
 H         -7.8748210900        2.7177785135        2.9716994131
 H         -7.0545857753        2.1090814444        1.7977769052
 O         -1.7505554254       -2.8107344381       -1.1671980221
 H         -1.4397418245       -2.9222109533       -2.0791383925
 H         -1.8040835560       -3.7046367778       -0.7964179875
 O         -2.9960684372       -0.4434911614        5.7848835818
 H         -3.1761878636        0.4645788967        5.5034614314
 H         -2.3884203016       -0.4137824138        6.5443853556
 O         -3.2471145743        1.4203202983       -1.9310559679
 H         -3.3197601072        2.0104747179       -1.1577105217
 H         -2.6304506232        0.7254366345       -1.6285828805
 O          4.5375679368        4.4559121234       -0.9646828641
 H          5.5262212060        4.5552321293       -0.9719724989
 H          4.2351180010        4.6953046654       -0.0752265594
 O          0.7501382574       -0.9125730565       -1.4291215711
 H          0.9955369547       -1.0574803657       -2.3577252456
 H          1.2294411601       -0.1335521884       -1.1056550914
 O          6.9602517100       -3.3868393726       -1.5058723648
 H          7.1522832294       -3.0856773792       -0.5926585332
 H          7.5404461552       -4.1302745583       -1.6679538570
 O          1.4833352395       -1.3605542911       -4.0007536606
 H          2.3911833106       -1.1176482883       -4.2405222249
 H          0.8983956153       -1.0737509295       -4.7267182858
 O         -1.0082690568       -3.1021436050       -3.7751787249
 H         -1.6430900364       -3.1202212338       -4.5273831472
 H         -0.2420990171       -3.6260506904       -4.0161797626
 O          1.0740317111        2.9247401747       -5.2417298592
 H          1.5492922896        3.5310922655       -4.6654254515
 H          1.7496920114        2.2655637606       -5.5288494382
 O         -1.5765601681        4.4028883081        1.7188709315
 H         -2.0776977465        3.7238848748        1.2148835474
 H         -1.5478825053        4.0995835262        2.6433933235
 O          4.8921498146       -0.0441541283        1.9145077338
 H          4.8949544661        0.8580810847        2.2573318032
 H          5.3902678192       -0.0273970993        1.0771720128
 O          0.9984704180        4.1293522132        0.9459859412
 H          1.0639318221        4.4249635416        0.0082130924
 H          0.0879009967        4.3795725768        1.2028348735
 O         -2.8886404590       -2.8184926071       -5.6257763034
 H         -3.6156891963       -3.1482010038       -5.0651048067
 H         -3.0978725737       -1.8811496125       -5.7629202500
 O          7.4644765311       -2.3690680575        0.9413455982
 H          6.8265947082       -2.5393600836        1.6758981913
 H          7.9775336334       -1.5999067168        1.2488543085
 O         -1.7706004374       -0.5165742946       -3.4374149557
 H         -1.2715112468       -1.3429649872       -3.5536250841
 H         -2.2655729215       -0.3631564831       -4.2710724069
 O          2.6825508099        0.9568866344       -2.8786988148
 H          1.7072396234        0.9534291552       -2.9722527352
 H          2.8978461586        1.8997514091       -2.7530417848
 O         -7.9479423385        0.7235532951       -1.5974160610
 H         -8.4420821846        0.4189364382       -0.8136877933
 H         -7.0118954206        0.5614386580       -1.3513181320
 O          5.5456654417        0.7665244734       -3.1416848409
 H          5.1936096201        1.0590061578       -2.2657885929
 H          4.9275774534        0.0946954022       -3.4808186094
 O          1.7897794913       -3.9597280479       -3.5101404083
 H          2.7305537068       -4.0324089184       -3.3135852535
 H          1.6405332520       -3.0008937704       -3.6695836347
 O         -5.0235833638        3.5882560582        3.0411188135
 H         -4.6725026504        4.4308050135        2.6790060748
 H         -5.3585397058        3.1244056466        2.2612012406
 O          6.8366721603        2.1338120425        0.7665558331
 H          6.2616689977        2.4329499332        1.4944956214
 H          6.2202308851        1.7655029128        0.1057734865
 O         -1.4607170246       -2.1917966653        1.9716288273
 H         -2.2924692331       -2.0553886793        1.4620415253
 H         -1.3017895656       -1.3904718394        2.5088060319
 O         -1.2314413734        3.6146571299        4.3337595434
 H         -1.4185292362        4.2779466223        4.9977243788
 H         -0.2435452718        3.6064139508        4.2330889249
 O         -3.7337652033       -2.1113111550        0.6860106727
 H         -3.9057828106       -3.0648441159        0.7773610998
 H         -4.5284794669       -1.6752605717        1.0389503688
 O          7.8054028010        2.4944881440       -2.8109876150
 H          8.3957596428        1.9416291719       -2.2621327981
 H          7.0713456775        1.9020350329       -3.0125828222
 O         -2.7226874671        0.5674121139        2.0745637184
 H         -3.0845296469        0.8598756018        2.9254846393
 H         -1.7483958749        0.7973473249        2.1387737426
 O          1.3431130966        3.7177016966        3.7735460196
 H          1.3308931203        3.8101357821        2.8113883597
 H          1.8572511350        2.9073872973        3.9746893699
 O         -5.8922325318        2.4681814401        0.6142742392
 H         -6.4188490193        2.9449165590       -0.0790599914
 H         -5.6888785093        1.5984347986        0.2066570964
 O         -2.4184455588       -3.6712036135        3.9290068840
 H         -1.9875562617       -3.0922733678        3.2491056069
 H         -3.2992292588       -3.2884342598        4.0693417406
 O         -4.3084571398       -4.9167703285       -1.5751168566
 H         -3.3756331266       -5.1654005698       -1.5276084699
 H         -4.4363594581       -4.4996939627       -2.4490896097
 O          0.8261584392       -4.9369253143       -1.1989406828
 H          1.0593069064       -4.6361771491       -2.1020872495
 H          0.7290936230       -4.1192730667       -0.6681253592
 O         -4.2246910744       -4.7547056479        1.1550352296
 H         -3.4169237151       -5.1816992309        1.4740215117
 H         -4.3392456920       -5.0167320274        0.2281284832
 O          4.9473542009        2.6880565126        2.5807370943
 H          4.4005601113        3.4560740753        2.3552357656
 H          4.9889161485        2.5948359784        3.5429259204
 O          3.0340051746        3.6609672036       -3.0783467036
 H          3.4991404767        4.0662987891       -2.3237702137
 H          3.7309051202        3.5433105653       -3.7524947874
 O         -8.6032884555       -0.1839226753        0.8799741075
 H         -7.8156404697       -0.7092493190        1.0982559270
 H         -8.5991663826        0.5423476674        1.5151818896
 O          3.8004700270       -1.0932417455       -1.3351815968
 H          3.3037551490       -0.3786623396       -1.7703702082
 H          3.4263675659       -1.2658199153       -0.4429754533
 O          5.1258484926        2.9256214469       -4.6486598166
 H          5.9324751834        3.4427472442       -4.6304727300
 H          5.3181837376        2.1163244653       -4.1162159374
 O         -0.4773125747        2.1934792824       -0.8267600032
 H         -0.2519057519        1.9906589243       -1.7601443892
 H         -0.9472567112        1.3956533574       -0.5281998081
 O         -1.7009059940       -5.4630648987       -0.5083583173
 H         -0.7858665110       -5.4747296760       -0.8613717278
 H         -1.6210763789       -5.6598579278        0.4315434835
 O          4.2318938575       -1.3353470671       -4.3556727853
 H          4.6426788624       -1.4500311641       -5.2121477104
 H          4.3822116200       -2.1471960606       -3.8335842856
 O          3.7500567178       -4.3536541026        1.9030560259
 H          2.9332975775       -4.6535804880        2.3184685719
 H          3.7773307296       -4.7962760695        1.0250382208
 O          3.4889982621       -5.2574497946       -0.5914207735
 H          3.8398313941       -4.6697878494       -1.2783536636
 H          2.5315889127       -5.3245425510       -0.7613069158
 O         -4.6711554838       -2.1862094083        4.5445099804
 H         -5.2179864356       -1.4491423055        4.2379391894
 H         -4.0885593141       -1.7586647059        5.1927318043
 O         -6.2207257934       -3.6947610361        2.7167828280
 H         -5.7938260105       -3.4619554450        3.5507652222
 H         -5.5630469874       -4.1923854239        2.2031137291
 O         -1.3938974342        1.8801122210       -5.9808240134
 H         -1.8359009813        2.3446543703       -5.2346437537
 H         -0.5876635548        2.3857542419       -6.1351882950
 O         -7.3407952786        3.3495303187       -1.3830091271
 H         -6.7878873575        3.5301559877       -2.1527781517
 H         -7.7530432789        2.4765172254       -1.5564962458
 O          0.0934132382        1.3842512591       -3.2554638056
 H          0.2031404437        1.9094953319       -4.0695874400
 H         -0.5836547821        0.6889587396       -3.3964882630
 O          3.4850994127        4.8394669876        1.5969842454
 H          3.4346286380        5.7135083420        1.9830525290
 H          2.5657855275        4.5889059229        1.3493250353
 O         -6.1684474317       -2.8548579802       -0.7958473833
 H         -5.5506773989       -3.5648128156       -1.0209072953
 H         -6.8400478782       -3.2296617454       -0.2261224057
 O          7.6168423937       -1.1842619628       -3.1743407041
 H          7.3425782233       -1.9222096818       -2.6115130906
 H          6.9010502979       -0.5302751435       -3.1444288130
 O          3.0749642802        1.1976226248       -5.5606932464
 H          3.8415219059        1.7766786139       -5.6296244577
 H          3.0208721550        0.9487133088       -4.6142952692
 O          8.3260340163        0.1292481846        1.7518087581
 H          7.7576438053        0.8432979142        1.3754461061
 H          9.1914592929        0.2862660727        1.3707531667
 O          6.9104856850       -0.2189442343        4.2102465642
 H          7.4454599564       -0.0254902597        3.4255331318
 H          6.4802882579       -1.0638065045        4.0199451748
 O          5.6758329535       -2.4273345089        2.8815014090
 H          5.2289435618       -1.6025077438        2.5912319981
 H          5.0305109295       -3.1387296967        2.7946558272
 O         -3.1701297192        2.6314978798        0.4800093937
 H         -4.1103524557        2.8608534134        0.5446739175
 H         -3.0439353345        1.8222643186        1.0355982710
 O         -1.8234754985       -5.7082598723        2.3750404018
 H         -1.8748418997       -6.5344464394        2.8558422919
 H         -2.0578975496       -4.9912746907        3.0223586574
 O         -4.0224885745        5.5905017506        1.5776545787
 H         -4.2576306458        5.3175892641        0.6804345406
 H         -3.0642026909        5.4293187790        1.6460890427
 O         -6.8300705572       -1.3799768007       -3.0507532168
 H         -6.5736576545       -1.8465430520       -2.2336210064
 H         -7.5232095545       -0.7583583642       -2.7843013128
 O          8.7785048372        0.4576503720       -1.2939117108
 H          8.7220118788       -0.1645263640       -2.0387923802
 H          7.9219303153        0.3574983020       -0.8488137561
 O         -6.1509869799       -1.2816229997        1.6414758347
 H         -6.3090173833       -2.1791841118        2.0178999286
 H         -5.9874218815       -0.6867473400        2.3981852235
 O          0.8696639388       -2.6948935940        4.3097537073
 H          0.8878966168       -3.4185501851        3.6584932672
 H          1.7140591593       -2.1963669157        4.1862324449
 O          6.2299839523       -0.3890600127       -0.4367068756
 H          5.4005730968       -0.6535720448       -0.8765555122
 H          6.6234673618       -1.1912353538       -0.0511719268
 O         -5.5225437811        0.1318498675       -0.6065942789
 H         -5.8256802282       -0.5112296057        0.0506251382
 H         -4.8931154842       -0.3611801674       -1.1750232352
 O          2.9924585497       -1.9549195461        1.0488346187
 H          2.0600973833       -2.1867707421        0.8746534098
 H          3.4164544602       -2.8015626254        1.3037484614
 O         -4.3893567132        4.8066727945       -1.1529787941
 H         -4.7204935295        4.1640498854       -1.8150274099
 H         -4.7244255756        5.6568636806       -1.4396253260
 O         -2.5752313696        3.0561442239       -3.8907728916
 H         -2.7669532547        2.3207193046       -3.2631532567
 H         -2.1160598301        3.7088229483       -3.3278273940
 O         -3.3513302830       -0.0916633531       -5.5513493770
 H         -2.9653227228        0.6800731805       -5.9798859878
 H         -4.1064926917        0.2249725440       -4.9993216916
 O         -5.8002765383        0.2913020915        3.7855821684
 H         -6.5216935511        0.8948048759        3.5211720458
 H         -5.0537827570        0.8453581171        4.0394050747
 O         -5.2405881580        3.3698418974       -3.3063227910
 H         -4.3644609103        3.4787097760       -3.7188675553
 H         -5.4500819992        2.4349047091       -3.4813103713
 O         -5.1461964365        0.6589764775       -3.7438079281
 H         -5.7265022614       -0.0989226307       -3.5266620894
 H         -4.5204748853        0.7572961726       -3.0012960716
 O         -0.2845829383       -0.6342552368       -5.9007486011
 H         -0.9008345151       -1.2347167570       -6.3217295192
 H         -0.6620660919        0.2630388147       -5.9703507089
 O         -1.6819139880        4.4069147505       -1.7498526590
 H         -1.3702739068        3.6215943191       -1.2507824243
 H         -2.5472349351        4.6333874740       -1.3763030700
 O         -0.8919924973       -3.2092471869        6.2458766779
 H         -1.5731954993       -3.4248374032        5.5881556245
 H         -0.0763259982       -3.1302372045        5.7169735203
 O          7.1452102756        4.2993997299       -0.8989209094
 H          7.4324033526        3.8068352470       -1.6939707486
 H          7.2221446966        3.6437173977       -0.1826637927
 O          1.0034934792        5.0276454545       -1.5489707681
 H          0.0614285663        4.9569828494       -1.7689815914
 H          1.4998394084        4.5263628200       -2.2051153009
 O          4.6259740507        1.8045004356       -0.8681771280
 H          3.7327356397        1.5423118934       -0.5947584468
 H          4.5979573324        2.7839069304       -0.9340662821
 O          0.3724384259        0.9414137006        5.8054200058
 H         -0.0756176373        0.4758976646        5.0691664517
 H          0.1360495530        0.4299686450        6.5879248854
 O         -4.7687599723       -3.2809785454       -3.7076406001
 H         -5.6682439824       -3.0198441816       -3.9227154344
 H         -4.4446010576       -2.5546651811       -3.1134973874
 O         -3.4273571715        1.9297516161        4.3421826826
 H         -2.5693543447        2.3795456285        4.4181995965
 H         -4.0222493559        2.6094256118        3.9417364427
