  90
       -152.68474343
 O          1.1537449772       -2.8334913711        0.5397749355
 H          0.4808872828       -3.5313409881        0.6786700435
 H          1.3768702879       -2.8818492965       -0.3965607724
 O          0.4005447313        1.0409207517       -4.5907336695
 H         -0.2996696016        0.6854210995       -3.9832948344
 H         -0.0037731254        1.1218663898       -5.4542067125
 O         -1.3256386083        0.1272854800       -2.8287346299
 H         -2.3121501899        0.2243628343       -2.9215953658
 H         -1.0917793782        0.7080379619       -2.0852860960
 O          1.9693067519       -2.5934087021       -2.3100319418
 H          2.2548206914       -3.3729429126       -2.7888741161
 H          2.1249470658       -1.8232177648       -2.9311219488
 O          2.5016500591       -0.5777833580       -3.8758690368
 H          1.7562542986       -0.0441311074       -4.2057284047
 H          3.0446246875        0.0209457132       -3.3427301414
 O         -0.5159733352        2.0379269598       -1.0743172003
 H          0.2218022003        2.3416032298       -1.6444591272
 H         -0.4214339024        2.5173377828       -0.2266454376
 O         -0.9115379468       -4.5325940613        0.9915577548
 H         -1.5875780467       -4.1392979191        0.4145895178
 H         -1.2122600834       -4.4058333738        1.8943354600
 O         -0.8210067166       -2.4879697146       -2.4570816059
 H         -1.0016305515       -1.5494945722       -2.6628346309
 H          0.1386320599       -2.5587352994       -2.3502751382
 O         -4.9167114124       -1.5385739548       -1.0400333552
 H         -5.7500035280       -1.8155994825       -1.4217971462
 H         -5.0847132691       -1.3513528051       -0.0884100473
 O          1.5625789088        2.6239702103       -2.6403214589
 H          1.2281488667        2.2571108762       -3.4734413769
 H          2.3053790893        2.0480702299       -2.3753973951
 O          3.8309767299       -1.4345321735       -0.5995945512
 H          3.2530644932       -1.9306405900       -1.2030382595
 H          3.4914090623       -1.6071629423        0.2817037549
 O         -0.3056803757       -2.2721780476        3.2052876274
 H          0.3455230181       -2.3488113615        2.4998196876
 H         -1.1763177192       -2.1906269972        2.7589358042
 O          3.6587337368        1.0188244108       -1.8665376749
 H          3.9809585426        1.7099117905       -1.2532677090
 H          3.8079064987        0.1763499336       -1.3976166208
 O         -3.2137116677        2.6558276720       -1.2544071288
 H         -2.2548745871        2.5357607459       -1.3526631522
 H         -3.3364201697        2.7994203240       -0.3037458220
 O          0.5191943056        2.6369507980        3.5958052414
 H          0.1492138002        1.8072591901        3.9251909263
 H          1.4950347720        2.5900162744        3.7862689985
 O         -2.6024059676       -1.7644045127        1.8786309893
 H         -2.5053264351       -2.1421080775        0.9749034145
 H         -2.3032465267       -0.8235665685        1.8213466925
 O         -5.2213424157       -1.3219058252        1.6203064914
 H         -4.2676998438       -1.4703229273        1.8295908394
 H         -5.7027267663       -2.0253297080        2.0566858411
 O          1.9153093873        4.3658709126       -0.4223750762
 H          1.6862346660        4.0107682604       -1.2917825857
 H          1.1574716740        4.1958842081        0.1589723313
 O          4.1848952830        3.0067574217       -0.0837036877
 H          3.3445217137        3.5217082987       -0.1394058618
 H          4.8831749904        3.6247773134       -0.3009819304
 O         -0.2603270503        3.5426229958        1.1621182917
 H         -1.2055258898        3.7134308081        1.2692038779
 H          0.0413593247        3.2258005537        2.0391135106
 O         -0.4657744682        0.0778993040        4.4450711597
 H         -0.9020814605       -0.0850042944        5.2813274076
 H         -0.3036099811       -0.8124932747        4.0401457602
 O         -1.5817898515        0.6551494409        1.9917788942
 H         -1.3148331017        0.6347623841        2.9238010049
 H         -0.7195873677        0.4929450950        1.4836991193
 O         -2.9693180264        2.8862602052        1.5090095225
 H         -3.7256996883        2.8671036776        2.0946043800
 H         -2.4821617493        2.0407273355        1.6517704888
 O         -2.5493519393       -2.9151954895       -0.5161591810
 H         -1.8889327819       -2.7846900568       -1.2389367518
 H         -3.3839521083       -2.5642087761       -0.8632563515
 O         -3.9075690347        0.4898483010       -2.7202559663
 H         -4.2518401843       -0.1813884203       -2.1113685436
 H         -3.8404021667        1.3223811510       -2.2086787796
 O          0.6535256784        0.0034940055        0.6342835454
 H          0.4822032791        0.3100883083       -0.2642116139
 H          0.8939854819       -0.9399656530        0.6053732991
 O          2.6191202407        1.5832591605        2.0187901160
 H          3.1917490169        2.0423569431        1.3922661127
 H          1.8498017116        1.2656553646        1.5233824681
 O          3.5305353674       -0.9583948240        2.2400077073
 H          3.1746674761       -0.0474980669        2.2802683658
 H          4.4624869360       -0.8901928870        2.4491438575
 O          2.8777765256       -3.6527700244        2.7259034399
 H          3.1175031626       -2.7215019162        2.8092786996
 H          2.3494675038       -3.6913702102        1.9224987728
 O         -5.4385526933        1.4300652366        1.0262406622
 H         -5.4521686242        0.4953529175        1.2654578620
 H         -5.2454101994        1.4822441386        0.0877440481
