  129
       -218.85199675
 O          1.5274606129        3.8875188430       -0.5547255372
 H          1.0739891182        3.6767304887        0.2813475952
 H          2.4829993092        3.9040325954       -0.3486776933
 O          1.7165538409        1.1537881247        1.5350398611
 H          1.6113433792        0.4947482548        2.2401610650
 H          2.6761476963        1.2622973234        1.4353315901
 O          5.7208473379        1.4636353132       -1.0107352778
 H          5.5459630564        0.9017829066       -1.8027724131
 H          6.6457650764        1.7083491071       -1.0533515047
 O          1.1003211260       -1.8077252811       -3.9190367857
 H          1.4785131688       -2.4191491644       -4.5530645964
 H          1.1995309430       -2.2361519276       -3.0271404088
 O         -1.9677034464        5.0132560264        0.8244680394
 H         -2.0090879330        5.8875384030        1.2147614148
 H         -1.2120292754        4.5427920084        1.2576639046
 O          0.6027727808       -4.1986128542        1.0932383714
 H         -0.0526613296       -4.4676859894        0.4392670228
 H          1.4095060115       -4.7102564067        0.9352103102
 O         -5.8987002797       -1.9504014689        1.2064956457
 H         -6.6208852834       -2.4122491710        1.6327161565
 H         -5.4370254370       -1.4341783778        1.9223134194
 O          2.0984572231       -1.8381560895        0.7239212655
 H          2.8416706605       -2.3192469439        1.1233762766
 H          1.7734741503       -2.4052186938       -0.0018937679
 O          4.5050301099       -2.9491293689        1.3679754978
 H          4.8452507354       -2.5736629116        0.5378161196
 H          4.6436368669       -2.2884342384        2.0675702206
 O         -6.1116085652        0.3312969147       -0.3166442599
 H         -6.2594429312        0.8669730736        0.4940443152
 H         -6.2607473090       -0.5778845953       -0.0073381079
 O         -2.2746208432       -2.2356731745        2.9973460209
 H         -2.6729027601       -2.8002436640        2.3101757048
 H         -1.6466442118       -1.6688005711        2.5237755885
 O         -3.5416605227       -3.3373352771        0.8047072972
 H         -4.4242334338       -2.9382153632        0.9027633439
 H         -3.3441040817       -3.2926540214       -0.1338920586
 O         -1.5230194179       -1.2184313118       -4.1493393115
 H         -0.5542547535       -1.3648943073       -4.0726658936
 H         -1.7633733983       -1.4406889980       -5.0499586120
 O         -2.8614190830        1.1083460648       -3.2463450265
 H         -2.4133261092        0.3642345128       -3.6735381642
 H         -2.2288380928        1.8489220347       -3.2615675725
 O          3.6093949353       -4.2715529874       -1.8090682031
 H          4.1660378367       -3.4910275616       -1.6166298632
 H          3.5937861802       -4.8040974923       -0.9997185505
 O         -1.0046978618       -4.4630919971       -1.2663086534
 H         -1.3974868293       -5.3107086341       -1.4777846099
 H         -1.6643774602       -3.7814536164       -1.5179251361
 O         -3.5678352794       -0.1551328668       -0.9772833241
 H         -4.5356460539       -0.0785368233       -0.8410615743
 H         -3.3508436317        0.3677016345       -1.7779120483
 O          5.3504864391       -0.0564958349       -3.1744333307
 H          5.8500487218        0.1691553551       -3.9596801457
 H          4.3933383545        0.0673974332       -3.4247971693
 O          1.3285908569       -3.0559996846       -1.6231109357
 H          2.1523697927       -3.5991966026       -1.7589461790
 H          0.5783372147       -3.6643362884       -1.5335638208
 O         -0.9749876109        1.4376812862        2.6433442065
 H         -0.5704547742        0.6071803172        2.3465223190
 H         -1.8821661611        1.4079396820        2.2812599893
 O          4.1200164936        3.5403298579        0.0457719941
 H          4.6697519592        3.0311668065       -0.5662690452
 H          4.2012150509        3.0821459736        0.8898092489
 O         -4.7750784486        2.5127274261       -1.5320838640
 H         -4.6453789245        2.3509043496       -2.4708212659
 H         -5.3886036205        1.8279529666       -1.2214740782
 O         -2.1039413235        2.5802750632       -0.7477438862
 H         -3.0132750065        2.5102963771       -1.0814226217
 H         -2.0448439838        3.4097645489       -0.2698490546
 O          0.0848683653        3.6275798669        1.7760408963
 H          0.6383049868        3.9390201317        2.4925291330
 H         -0.2762388543        2.7413241978        2.0854607306
 O          4.3323570684       -0.9545297355        3.2221712640
 H          3.3565455497       -0.9024280034        3.3592894518
 H          4.7299160503       -0.9922804442        4.0926597315
 O         -2.7709995835       -2.5487028316       -2.0059594969
 H         -2.4051010942       -2.2118736056       -2.8379322609
 H         -3.1169229934       -1.7510718818       -1.5546653631
 O         -1.0545034956        3.1912866306       -3.5198966453
 H         -1.0237830670        3.8882728672       -2.8160108481
 H         -1.1305388744        3.6590244984       -4.3521836609
 O          3.1907557264       -5.2449837753        0.7721678923
 H          3.4831674212       -6.0206833099        1.2519165061
 H          3.6971655233       -4.4877884182        1.1230942665
 O          2.9353012487        0.0086222996       -1.0055739283
 H          2.5831860558       -0.4542203240       -0.2182892614
 H          3.3560240023        0.8169049983       -0.7073404764
 O         -4.4283649587        3.6217110778        1.0468464771
 H         -3.6749942425        4.2310263581        1.0324725549
 H         -4.7519875597        3.5549574916        0.1384013080
 O          4.8271848311       -1.8999272841       -1.1625144031
 H          5.4052738264       -1.6014992134       -1.8727563533
 H          4.0912060601       -1.2430586476       -1.1775036306
 O         -6.3005616336        1.6246068957        2.0362445867
 H         -5.9140925076        1.0530549002        2.7083998979
 H         -5.8154851198        2.4568689994        2.0454446185
 O          2.8811083671        0.3603018305       -3.9526625969
 H          2.2778358330       -0.3981252579       -3.9167405699
 H          2.4414064069        1.0548882152       -3.4377641462
 O          0.4098366038       -2.9871358807        3.5391177692
 H         -0.5459917480       -2.8612792070        3.6431616613
 H          0.5119642354       -3.4618453099        2.6946937454
 O          1.2832443241        2.1864282588       -2.5938041937
 H          0.5059686784        2.5032798494       -3.0918660759
 H          1.5215544594        2.9104599541       -1.9796065899
 O         -0.6457490572        5.0894609547       -1.7204883369
 H          0.2226019978        4.8325143722       -1.3659253110
 H         -1.2152975332        5.2214857239       -0.9517445230
 O          1.6840256923       -0.7117422707        3.6031108699
 H          1.2218899634       -1.5981791424        3.5466862364
 H          1.3277502817       -0.2874844039        4.3849569041
 O         -3.3302374696        1.1845444344        1.4003189144
 H         -3.7608381438        2.0574505956        1.3073170871
 H         -3.3486499053        0.7683549672        0.5158327265
 O          4.4376774612        1.1383907745        1.4300185648
 H          4.5796979148        0.4038137260        2.0483411065
 H          5.0371153404        1.0190078837        0.6777080871
 O         -4.5103330855       -0.6119019132        3.0060330415
 H         -3.8007401339       -1.2317767759        3.2575575106
 H         -4.0575272838        0.0679336829        2.4659269218
 O         -0.4673609739       -0.9015254833        1.4235552004
 H         -0.5997973869       -0.4808106726        0.5427210518
 H          0.3901245158       -1.3382793434        1.3252166234
 O          2.1902709061        2.7347264351        3.7062114172
 H          2.7488321983        2.1034833176        4.1596914366
 H          1.8804876414        2.2767784579        2.8927812858
 O         -0.4247541607        0.3350374042       -0.9636178546
 H         -0.9721626136        1.1298180402       -0.8953567692
 H          0.4402778876        0.6388958648       -1.2615798896
