  309
       -524.48535468
 O          1.2462227274        3.6210174152       -1.4684996616
 H          1.0314607435        4.3292530943       -2.1079733130
 H          2.2036988581        3.4638977499       -1.5969606191
 O          1.6844459494       -0.6897845445       -4.3070514563
 H          2.0522764795        0.1857369955       -4.1041844130
 H          2.4080956046       -1.1551907942       -4.7709709246
 O          0.7537045760        3.4730889206        1.2097648482
 H         -0.0669441018        2.9612340725        1.3389665411
 H          0.8724605693        3.5914639316        0.2470310219
 O          5.6969281162       -0.4596441878       -4.9308174541
 H          6.4551057659       -0.7655901705       -4.3945429499
 H          5.7321836369        0.5080946036       -4.9137794021
 O         -7.3302525129        2.7235182565        2.2856213112
 H         -7.4996415446        2.9958540749        1.3488007067
 H         -6.4146251758        2.3731591604        2.2464474378
 O         -1.8796485818       -2.7617320981       -5.8543287101
 H         -1.0436342943       -2.9134029942       -6.3090236708
 H         -1.7044114057       -2.0126240825       -5.2534247634
 O          5.7216126360       -0.1110900655        1.4141536493
 H          5.9305321596       -0.9553646002        1.8544135513
 H          4.8002700373        0.0797424764        1.7090368767
 O         -2.9927530149        3.0794279320       -0.2214255739
 H         -3.7218505445        2.4346822166       -0.3222566022
 H         -2.2723093916        2.8077621340       -0.8404179933
 O         -0.4285046676       -1.7685554613        5.6142677674
 H         -0.6149557027       -1.1388472143        4.8805937908
 H         -1.3149855087       -2.0769005357        5.9023307097
 O          1.4909752940       -1.1532578547        3.3628669114
 H          1.6502392687       -0.9339421172        4.2921225779
 H          2.0242886593       -1.9406510450        3.1746143796
 O         -2.9591368155       -2.5446595448        5.8072786385
 H         -3.3214657961       -1.6506497772        5.7184031027
 H         -3.0296380552       -2.9391512205        4.9230427104
 O         -1.5757627265        2.2878589765        1.8522800309
 H         -2.1507063356        2.6750551057        1.1525321694
 H         -1.7779301961        1.3427776698        1.8857242663
 O          3.1140214071        5.1613951134        1.4120657122
 H          2.8624841012        5.0754767482        2.3338061350
 H          2.3220343639        5.5320126542        0.9519273226
 O         -1.3008243663       -0.1379037718        3.6714471917
 H         -2.2182369962       -0.1077526686        3.9888330760
 H         -1.2420184815       -0.7848015206        2.9426136868
 O         -3.2423303185       -2.6731849602        0.0425236769
 H         -2.4643044377       -2.3391182784        0.5315232534
 H         -3.3802755966       -3.5802731916        0.3548456434
 O          4.0569708503       -1.1923375913       -2.8890050156
 H          4.5096093620       -0.8771443017       -3.6933160302
 H          4.3637763977       -0.6192179781       -2.1622688196
 O         -1.1863856199       -1.9129996112        1.6259692227
 H         -0.4070669004       -2.4815624556        1.4584939365
 H         -0.9860806900       -1.0864872934        1.0909801647
 O          3.9873493195       -2.1261853803        0.0262652080
 H          3.4564202178       -2.6311524690       -0.6029506334
 H          3.7532348178       -1.1894016424       -0.1134211106
 O         -3.0661843366       -2.2259255310       -2.5694715269
 H         -3.1410285420       -2.5288626199       -1.6385515699
 H         -3.9465979423       -2.2972213952       -2.9496837681
 O          0.9942306986       -3.2786986575        0.8204074467
 H          1.3835897399       -3.2320128849       -0.0585249912
 H          1.7266509741       -3.2201225013        1.4595943589
 O          3.1930327570       -2.9974639557        2.3479640109
 H          3.5960165703       -2.6917323892        1.4952353242
 H          3.3893747223       -3.9503451172        2.4598858586
 O          2.3396048692        2.8540593602        3.2658057107
 H          1.8441868785        3.0941202825        2.4555337635
 H          1.6706763772        2.4480722120        3.8610355763
 O          0.4038278105        1.7315617493        4.7066269175
 H         -0.2501753850        2.4567459382        4.7447467736
 H         -0.0508025868        1.0296086548        4.2056192242
 O         -2.9798875814       -3.3009437893        3.1294567218
 H         -2.2413430501       -2.8463571083        2.6785753657
 H         -3.1453980515       -4.1006855393        2.6115550149
 O          3.3632255828        0.4670056752        2.3608679790
 H          2.6853319144       -0.1597240212        2.6877675617
 H          3.0693199738        1.3494925464        2.6306180765
 O         -3.7063645241        0.0122481859        5.0092344635
 H         -3.6990200652        0.9482981974        5.2526100980
 H         -4.5965329176       -0.1527784819        4.6674611310
 O          1.8066813166       -0.2600080715        6.0260670297
 H          1.0551092573       -0.8360375733        6.2334264318
 H          1.4174320627        0.5829064925        5.7450592836
 O         -8.6686790713        1.2941729427       -1.7825518134
 H         -8.4972086813        0.5332532679       -1.1900495798
 H         -8.3708439428        2.0751787211       -1.2885408825
 O          0.9079324104       -2.7875464403       -6.0793797847
 H          0.8406897177       -1.9771932449       -5.5532474542
 H          1.7950378097       -2.7549655524       -6.4551651711
 O         -4.9568762775       -1.8389964864        2.0642235257
 H         -4.2985520619       -2.3745485087        2.5520132096
 H         -5.4439526551       -1.3138992141        2.7222780027
 O         -6.0981239903       -0.0298112041        3.6848816579
 H         -5.7046419105        0.7080483456        3.1922792490
 H         -7.0384291978       -0.0387084333        3.4509224380
 O          4.0302311174        2.7052327462        0.7108228958
 H          3.6201974134        3.5412503713        1.0003013482
 H          4.8936402308        2.6442031852        1.1398220903
 O         -0.9372221525        5.0073559245       -0.7524594495
 H         -1.2299235494        5.2387603679       -1.6494978960
 H         -1.5859277328        5.3936284697       -0.1252688978
 O         -1.0016880981       -0.8760851504       -4.0172374611
 H         -1.0347433106       -1.3930529115       -3.1865542435
 H         -0.0639209675       -0.6521723049       -4.1355913286
 O          3.9948512356       -1.6922154122        4.9918219606
 H          3.3502046658       -1.1841013229        5.5018210889
 H          3.7322456963       -2.6305346689        5.0870415321
 O          1.2673336612       -5.6947729485       -1.3249633389
 H          1.1963446947       -5.6160124551       -2.2812702853
 H          2.1493368921       -5.3400315514       -1.0896950278
 O          1.0549907398        6.3661966580        0.2382797590
 H          0.3688309856        5.7833626899       -0.1961496476
 H          0.5988427945        6.7742342245        0.9780035029
 O         -3.2986481782        0.4621277781       -4.4122088379
 H         -3.9594799411       -0.2257119720       -4.2738947920
 H         -2.4417959304        0.0226372645       -4.2411263062
 O         -4.5749078497        4.5707732731        1.8004179276
 H         -5.1056300246        4.9071016923        1.0533237566
 H         -5.0518695933        4.7905628246        2.6134573345
 O         -4.1269024496        2.7648945603        4.7513139905
 H         -4.7852381956        3.4584448632        4.8629449288
 H         -4.2743524353        2.4332891935        3.8396533684
 O          3.8714358745       -4.4141262312       -4.5025262253
 H          4.4487142960       -4.2428058424       -3.7453691867
 H          3.0078621463       -4.6669463978       -4.1598105274
 O          7.3885541128       -3.0817331825       -0.5061180749
 H          7.5804873574       -2.2402094685       -0.0470082010
 H          8.1797155394       -3.3116065719       -0.9939661959
 O          3.0589796366       -4.2311572068        5.0814792431
 H          2.1213120120       -4.1250406587        4.8487596781
 H          3.4130911526       -4.8287343260        4.4098916018
 O          5.9443622167        0.1310864134        4.4940689110
 H          5.4698671751        0.9604931281        4.3475852669
 H          5.2562747090       -0.5326286823        4.6781553974
 O         -7.9591078859       -0.6437290425       -0.0307099671
 H         -6.9952316456       -0.7799336048       -0.1616472305
 H         -8.0918493596       -0.3666742206        0.8890492872
 O          4.8763006806        2.7518192747        4.1223658773
 H          4.8839532075        3.1478436615        4.9928244055
 H          3.9533286816        2.8072569853        3.7953176069
 O         -3.2470810331        0.1281240758        1.2020910162
 H         -3.7978979308       -0.6527286373        1.3952584978
 H         -3.1354724644        0.1493349831        0.2257370580
 O         -3.0535937808       -5.7376914428       -1.6914115539
 H         -2.7468338999       -5.6521753571       -2.6039599384
 H         -2.3222823450       -5.3153198920       -1.1850122793
 O         -6.2863763614        4.5461703806        3.9993318113
 H         -6.8023609614        3.9120066363        3.4562888366
 H         -6.9121348570        5.1519374191        4.3939647665
 O          8.8297680027        0.6637539723       -1.6250136680
 H          8.6323317459        0.0061083008       -2.3034520933
 H          8.6625381210        0.2092681715       -0.7796038740
 O         -1.6211462682        2.8895282348       -4.3752316182
 H         -0.6999537760        2.9118878291       -4.7378780063
 H         -2.0959125074        2.1702250308       -4.8008242308
 O         -4.7507023569        1.9565187631        2.2519604594
 H         -4.1663659920        1.2910986596        1.7884100544
 H         -4.5156836373        2.8366424727        1.8888484831
 O         -5.3994220343       -1.0028863438       -0.6719276851
 H         -4.7354684275       -1.6239237605       -0.3276432737
 H         -5.4064798692       -1.1102215437       -1.6448160017
 O         -2.9834430248        0.2653239950       -1.4665544128
 H         -2.2417538050        0.7983393855       -1.7711508427
 H         -2.9263412942       -0.5901304474       -1.9290685497
 O         -1.0285347578       -4.5523509929       -0.4568027842
 H         -0.2102488280       -4.9811961686       -0.7811592731
 H         -0.9387775283       -4.5476260803        0.5087344292
 O         -1.8674880185        5.4399774557       -3.3050230420
 H         -1.7790292723        4.6116455685       -3.8048059924
 H         -2.7708132016        5.4118683758       -2.9463560909
 O         -5.9544224018        5.5500413739       -0.3453159783
 H         -5.2870954705        5.2689224818       -1.0319583913
 H         -5.9828604225        6.5056376888       -0.3784276961
 O          3.8619499177        3.2469201617       -1.8723084600
 H          4.0262172999        2.8239732321       -1.0046650641
 H          4.2022184475        4.1522217445       -1.7688463134
 O          0.9060742116        3.1961907155       -5.0357892852
 H          1.0354081776        4.0463129770       -4.5875008806
 H          1.5930167573        2.6046943283       -4.6784226105
 O          3.6017110173       -5.6163874235        2.6892238544
 H          2.8342518569       -6.0179631231        2.2191175659
 H          4.3867688923       -5.7682012334        2.1540468885
 O         -1.0821154546        2.2546972163       -1.8596417509
 H         -0.2722152378        2.7618984372       -1.6634745098
 H         -1.3149622938        2.4947527951       -2.7828648892
 O         -7.1258459703        1.0724591979       -3.8585662777
 H         -7.7310351626        1.1534354974       -3.0637681634
 H         -7.6896382135        1.1119487634       -4.6297951238
 O          1.4117205304       -6.4710852497        1.4205868450
 H          1.4377793597       -6.4251574362        0.4579813083
 H          0.7052199737       -5.8585010601        1.6888691863
 O          4.7641142471        5.5786326092       -0.8033083481
 H          5.6359604111        5.2364248774       -0.5612643299
 H          4.2412258968        5.5412066940        0.0128789116
 O         -2.3619463223        6.1148922628        1.1949030465
 H         -3.0683359215        5.5037973561        1.4562488515
 H         -1.6389259885        5.9897914284        1.8418308968
 O         -4.1355884437        4.6784845145       -1.9922848238
 H         -4.4312774141        3.9449084476       -2.5616013596
 H         -3.6222259522        4.2310582122       -1.2729366899
 O          5.6284325104        2.2428087929       -4.4527102052
 H          5.9656884378        2.3022140433       -3.5338270698
 H          5.8021857335        3.0900607779       -4.8609285264
 O         -1.7136126568       -4.3321411126       -3.6921318516
 H         -2.0383470462       -3.5911309497       -3.1431115051
 H         -1.8579972313       -3.9958178877       -4.5998231926
 O          2.5591587821        7.0441123038       -1.9594838938
 H          2.0342022721        6.9589499753       -1.1448729622
 H          3.4185206924        6.6578961180       -1.7530508776
 O          6.5205757865        2.3377789216        1.9704620650
 H          6.3163499808        1.3888640832        1.7617454158
 H          6.0551070957        2.5315483865        2.8002029268
 O          2.0589818791       -2.8063501877       -2.0077592071
 H          2.5971411204       -2.1410104811       -2.4706170990
 H          1.7400417553       -3.4252512547       -2.6973522461
 O         -7.3539005783        3.1916160236       -0.2824094296
 H         -7.0354423946        4.0963650819       -0.4131280987
 H         -6.5592812062        2.6116243692       -0.4196976398
 O         -5.2403322394        1.6772182058       -0.6663393471
 H         -5.2376175203        0.7013138410       -0.5790719658
 H         -5.0598337770        1.8446842553       -1.6191122850
 O         -1.5403028120        3.5339193237        4.2146453307
 H         -2.4173282696        3.3738682592        4.5979768053
 H         -1.5738124974        3.0945430208        3.3354941919
 O          6.7702457415        2.3393673291       -1.9986799317
 H          6.7999871332        3.0556806142       -1.3452632687
 H          7.6181549418        1.8492242699       -1.9203397653
 O          0.3271214928       -4.0351285702        4.5661717344
 H          0.1073949967       -3.1162567627        4.8860912131
 H          0.0369965996       -4.6248660068        5.2628594127
 O         -0.7621497286       -4.9632583693        2.2834476152
 H         -1.3755424287       -5.6160575265        2.6210767277
 H         -0.3329798523       -4.5323259786        3.0525734430
 O          5.8157591128       -2.4017347873        2.8964570720
 H          4.8528424314       -2.3773051996        3.0636563707
 H          6.2315775739       -2.2266328658        3.7418682240
 O         -3.7622528222       -5.1799783235        1.1697761954
 H         -3.5821054239       -5.7570059273        0.4208468138
 H         -4.7089583674       -4.9577295362        1.1259737548
 O         -8.3610956995       -3.2842990666       -0.5735306594
 H         -8.1111872898       -3.3465171866       -1.5073884819
 H         -8.3985545762       -2.3292613898       -0.3837841019
 O         -5.6206872316       -1.1540219876       -3.3785854412
 H         -6.1447353655       -0.3559211471       -3.5748810248
 H         -6.2435002472       -1.8991823569       -3.4306378962
 O         -6.1250074875       -3.9286358691        0.7415249961
 H         -5.8371747655       -3.0989981188        1.1686742915
 H         -7.0276769300       -3.7704230660        0.3847432829
 O          7.0307610544        4.1511585429        0.0668129003
 H          7.9284036496        4.4598795561        0.1868734682
 H          6.8558435813        3.5089432350        0.7897434298
 O          3.7307575136       -4.8558065239       -0.6878650959
 H          4.2592611360       -4.4640825863       -1.4038898343
 H          4.3225986084       -4.8398935696        0.0827398242
 O         -5.0900032916       -3.9909298910       -1.7458349272
 H         -4.4063526369       -4.6915392077       -1.7760983097
 H         -5.4369465433       -3.9781320762       -0.8309499417
 O         -4.7950385278        2.3295294224       -3.2012178170
 H         -5.6400174232        2.0306632089       -3.5732426005
 H         -4.1184523523        1.7316436425       -3.5849339832
 O          0.9628430700       -4.3970951092       -3.8703751157
 H          1.0108945569       -3.9214963723       -4.7236703185
 H         -0.0081283034       -4.4434185197       -3.6990945543
 O          8.5468172752       -0.9061577764        0.6578474556
 H          8.2642656130       -0.5016512181        1.5169129669
 H          9.4407194606       -1.2122754028        0.8157352696
 O         -0.2170904356        5.5002307356        2.7495000846
 H         -0.6379146292        4.9908240027        3.4575394326
 H          0.1784227272        4.8252207661        2.1598061204
 O          2.9477216099        1.7188593204       -3.9344771413
 H          3.1519211051        2.1508536760       -3.0886275533
 H          3.7883508038        1.7605155548       -4.4111379456
 O          0.9694071736        5.4553665564       -3.4055825179
 H          0.0760678544        5.8160622463       -3.4377890823
 H          1.5584715369        6.1375460667       -3.0149351758
 O          5.8643910968       -0.1103993534       -1.2528177628
 H          5.8164799685       -0.2033170920       -0.2794807888
 H          5.9876451145        0.8332564944       -1.4441956967
 O          5.3599052096       -3.4300610629       -2.3626038485
 H          5.9321814039       -3.2682671332       -1.5950993266
 H          4.8524532525       -2.5901145449       -2.4981231426
 O         -0.5312510339       -2.1793829570       -1.7070064375
 H         -0.8466405591       -2.9773419452       -1.2460969869
 H          0.4287448308       -2.3123835791       -1.8143853481
 O         -7.1788624831       -3.4102344749       -3.1636247935
 H         -6.3799614191       -3.7210690600       -2.6571835833
 H         -7.3604684881       -4.0795911473       -3.8220781010
 O          3.5494324832       -2.0561546803       -5.7755695103
 H          4.3687503134       -1.5469147578       -5.7382861493
 H          3.7470186991       -2.9243557139       -5.3647632463
 O         -8.5138617912        0.3734662333        2.4908231678
 H         -8.2016388268        1.3094636537        2.4112169644
 H         -9.4528767956        0.3968407623        2.6697085539
 O          7.3776096325       -1.3898911112       -3.0133079349
 H          7.0551778452       -2.2967902409       -3.0565028661
 H          6.8251903694       -0.9575046323       -2.3144861239
 O          8.1855721005        0.2416332376        3.0097193717
 H          8.1104147963        1.1755824224        2.7888543621
 H          7.4080652649        0.0614001385        3.5799339851
 O          5.7506180435       -4.5878371936        1.1866915401
 H          5.7413090436       -3.8807140722        1.8544027899
 H          6.3721430592       -4.2588931940        0.5236507961
 O          2.8436921263        0.3327835898       -0.4610837135
 H          1.9038632105        0.2274664698       -0.2788141240
 H          3.1677131759        0.9825392485        0.1786398432
 O         -0.2644706933        0.0014593776       -0.0830066281
 H         -0.3671122127       -0.6678639256       -0.7884597959
 H         -0.5308355929        0.8484019481       -0.4547235363
 O          9.5930248019        2.9048443504        0.1329695370
 H         10.0549554663        2.2884075715        0.7026849199
 H          9.4038839909        2.4225436493       -0.6792456189
