  90
       -152.71457668
 O         -2.8463833460        1.4986112866        2.0928238371
 H         -2.9662416272        2.3573505681        1.6787009302
 H         -1.9274707655        1.2432994430        1.8299850210
 O         -0.1168408822        0.8562974622       -1.1558601376
 H         -0.2532514057        0.7742389843       -0.1982021421
 H         -0.9913489479        1.0403675961       -1.5291274369
 O         -1.8466431284        3.3947242417        0.1852551398
 H         -0.8826029509        3.1967700792        0.1779797624
 H         -1.9231386608        4.3010097640       -0.1134455363
 O          4.2854397681       -2.1430553696       -0.3334236958
 H          4.2584213403       -1.3145138538       -0.8288711805
 H          4.1687291077       -1.9149505517        0.6034326325
 O          0.7432700564       -0.2782088040        3.6849732380
 H          1.5897837611        0.1870370666        3.5422291147
 H          0.9385603200       -1.2277492053        3.5733916067
 O         -2.0371209843       -0.3367939763        4.1699624028
 H         -1.0739588901       -0.2558368207        4.1054862128
 H         -2.4086162712        0.4011533550        3.6683060589
 O          0.2513341839        1.2399610887       -4.8593904446
 H         -0.3094421564        1.9319138200       -4.4700386591
 H          1.1289992669        1.3656013651       -4.4554693487
 O         -1.4466293251       -0.9806103669        0.5290840670
 H         -1.6250277282       -1.3618274711       -0.3457223225
 H         -2.0126413663       -1.4471467801        1.1712933646
 O         -2.8410086150       -2.2603920364        2.4718582197
 H         -2.5905036315       -1.6561680264        3.2052099883
 H         -2.1987754112       -2.9882707247        2.4794798918
 O         -0.8091209359       -4.0861160318        2.0977907970
 H         -0.9331969521       -5.0203808502        2.2663952889
 H         -0.7636989004       -4.0065825248        1.1037643951
 O          1.2667237115        3.1579451296        2.9475414835
 H          0.9744702516        3.3527377229        3.8384402680
 H          2.0015983386        2.5282309738        3.0309009479
 O         -4.5068216614       -0.4389782342        1.1983121895
 H         -3.9618671884        0.3020653351        1.5400386285
 H         -4.1474000932       -1.2258764541        1.6329975674
 O          2.3252513956        1.0032882234        0.3179948193
 H          1.7868015679        0.1953461543        0.4763867772
 H          2.8531967692        0.7954713384       -0.4821944288
 O         -1.3666083577        3.1290033674       -3.6429675962
 H         -1.8635565281        2.5801378887       -2.9998268784
 H         -2.0151979377        3.5730222268       -4.1888184567
 O         -0.6795147081       -4.0521502359       -0.5087235596
 H          0.2554153685       -3.8891685611       -0.7170367223
 H         -1.1907399137       -3.4228965224       -1.0399549628
 O          1.1887475899       -2.9837500279        3.5755245608
 H          0.5318101010       -3.3235543600        2.9334539016
 H          0.9002172056       -3.2869472464        4.4370632748
 O          1.8654006947       -3.1538208004       -0.9354651035
 H          1.6322320313       -2.4892526553       -1.6173147408
 H          2.8215499187       -3.0182303976       -0.7675904413
 O          2.6278585294        2.1023753266       -3.6967203668
 H          3.1717069180        2.5902390316       -4.3149339485
 H          2.0994858205        2.7832141561       -3.1982822340
 O          3.4098251559       -1.6402056749        2.3027463917
 H          3.2594257875       -2.3949533149        2.8760951284
 H          2.5444654881       -1.5037461952        1.8621305412
 O          1.1507940872       -1.0762836381       -2.4171376650
 H          0.6853294643       -0.3763942017       -1.8922019409
 H          0.5791756092       -1.2256869954       -3.1838722013
 O          1.1317061692       -1.3401939929        0.9059308949
 H          0.1571411556       -1.2029775365        0.8378981769
 H          1.3450798337       -2.0558623947        0.2719553430
 O         -0.2697036019        1.1760186953        1.6758915347
 H          0.1462653678        1.9859741196        2.0067696894
 H          0.0346143258        0.4710932038        2.2794499020
 O         -0.8075429101       -1.1012112671       -4.3268648923
 H         -0.8290604256       -1.5878120185       -5.1502223962
 H         -0.4666999339       -0.1930460399       -4.5472068100
 O          0.8786258168        3.2737943012        0.1179115649
 H          1.3056287474        2.3848058278        0.0724221500
 H          1.1804890698        3.6515773880        0.9497309923
 O          3.4940038065        0.1657311515       -1.9332083337
 H          2.7353802249       -0.4002505129       -2.1793005938
 H          3.4165818921        0.9114349498       -2.5492591873
 O         -2.6606154174        1.7109154963       -1.7985259185
 H         -2.5631212809        2.2185643007       -0.9712937810
 H         -3.2407451310        0.9455145303       -1.6236413138
 O          3.0396566286        1.0214312226        2.8763572359
 H          2.8687628868        1.1018674018        1.9079865563
 H          3.5393166038        0.1944870538        2.9404323179
 O          1.1064832350        3.9010327226       -2.5296728701
 H          0.2310019976        3.6954823862       -2.8890286826
 H          1.0531437905        3.7163191629       -1.5744701744
 O         -2.0137858483       -2.0203126221       -1.9477286228
 H         -2.8741460220       -1.5730670652       -1.8770976104
 H         -1.6041145572       -1.6920211249       -2.7621451995
 O         -4.2081481912       -0.4771209542       -1.3716634364
 H         -4.3013197080       -0.4921399761       -0.3706985914
 H         -5.0975551215       -0.5427056813       -1.7178131830
