  129
       -218.89505791
 O          3.3874477560        1.5415068468        2.6295962090
 H          4.3546689483        1.5430365134        2.6775612462
 H          3.2192544764        1.1599422747        1.7482445204
 O          2.6288804862       -2.3562554468       -0.9242901716
 H          1.9633536536       -3.0574495801       -0.9906022651
 H          2.6229366199       -2.0700027696        0.0123432547
 O         -3.0283078142       -2.1627043747       -2.5300733797
 H         -2.1386944908       -2.0396427432       -2.1589655789
 H         -3.0008415251       -1.6727013236       -3.3750118080
 O          1.2974219863       -4.4969579708        1.5349045281
 H          0.9549016405       -4.5023616918        0.6329517574
 H          0.5584268876       -4.2729812882        2.1163338298
 O         -0.3650990018       -1.6840885250       -2.0372348790
 H         -0.1812747225       -1.2840514186       -2.9154599197
 H         -0.0742341716       -1.0112096879       -1.3837990739
 O         -2.6306850767       -0.2373153981       -4.3612024176
 H         -2.3735629875        0.2312687110       -3.5339511534
 H         -3.5117157552        0.1292747318       -4.5556030139
 O          0.0621328876        2.1811952635       -3.4840168590
 H         -0.0010509954        3.0295249648       -3.9211676982
 H          0.9488767760        2.1440102774       -3.0506629087
 O         -6.1028890360       -2.4301492052        0.0895723500
 H         -5.5263419310       -3.1744571679       -0.1815222002
 H         -5.6154112036       -1.9782754258        0.7990838820
 O         -5.8288958950        1.4220079509       -0.3959226888
 H         -6.7838670435        1.4249213667       -0.4601458773
 H         -5.5289571326        0.5798961863       -0.8360429511
 O          3.2681829824        0.6851487807        0.0572845170
 H          3.9299289900        0.3376117086       -0.5654782485
 H          2.3998452263        0.3496747875       -0.2252354372
 O         -5.2194144436       -0.7401212244       -1.7153581418
 H         -4.3660501602       -1.1739154033       -1.9088861433
 H         -5.6990198870       -1.3943648571       -1.1458648333
 O          5.0530234024       -0.2913058622       -1.8359083075
 H          4.4332804390       -0.4273264943       -2.5642752270
 H          5.3463569499       -1.1740358429       -1.5672265601
 O          2.7697472815       -2.2495196120        1.7506433021
 H          2.4442679592       -3.1718625802        1.7281097699
 H          2.3310160184       -1.8690622237        2.5344751850
 O          1.3695896568       -1.7061859292        3.9954599935
 H          1.4214647037       -0.7357861217        4.2395347305
 H          1.7375572492       -2.1812612790        4.7413253355
 O         -4.1297293097       -4.0612768863       -0.7959935905
 H         -3.3859721928       -3.9486571840       -0.1846350934
 H         -3.8820158117       -3.5413650055       -1.5741305712
 O         -5.0255781714        0.9649973178       -3.9285294102
 H         -5.2723003746        0.3312512534       -3.2353732541
 H         -4.7671825936        1.7705146372       -3.4678346910
 O          2.4744551253        1.8178802611       -2.5500358574
 H          3.2922491413        2.3260751501       -2.6336757157
 H          2.6620348378        0.8981442714       -2.8080256485
 O         -4.4155118283       -0.9395128872        1.7074867282
 H         -4.6470643127       -0.0220219250        1.9029244766
 H         -3.6270685817       -0.8434889075        1.0822242215
 O          6.3062478500        1.9175263434       -0.7612198956
 H          6.0491700005        1.0881880438       -1.1911273885
 H          6.1328233020        1.7772778777        0.1869008216
 O         -1.7597893943       -3.4847031079        0.5212952794
 H         -1.4460684272       -3.4180234567        1.4404727503
 H         -1.0315660531       -3.8252494643       -0.0126841810
 O          2.6893038071       -0.8166151610       -3.2116567059
 H          2.5114022675       -1.3473910449       -2.4139890439
 H          1.8952291864       -0.8513977469       -3.7608947848
 O          0.2725147240        2.6599841588       -0.4208266389
 H          0.1508183401        2.9875786960        0.4988558499
 H          1.1684903027        2.9628141873       -0.6547714514
 O         -0.1802256970        3.6520021884        2.0229525377
 H         -0.3956478944        3.0914175765        2.7893124754
 H          0.7372576602        3.9719069056        2.1939493009
 O         -3.0727690928       -1.7549422187        3.7909313696
 H         -3.6486269255       -2.2530771246        4.3714969539
 H         -3.6099238820       -1.5507455305        2.9727966063
 O          5.2549588975       -2.8757276204       -0.9440647409
 H          4.2730526927       -2.8023060803       -0.9640294718
 H          5.4793218702       -3.7859336330       -1.1343046974
 O         -4.0487850307        2.8683122500       -1.8474594881
 H         -4.7559920750        2.4242642768       -1.3407975473
 H         -3.5975299201        3.4237417710       -1.1990612394
 O          4.7602865410        3.4271512288       -2.2834003068
 H          5.3181170847        4.0306539814       -2.7722095306
 H          5.3651325066        2.9073255077       -1.6937303010
 O          5.4044179860       -1.5078456977        1.5232462393
 H          5.5848935412       -1.9445756410        0.6798866831
 H          4.4714933201       -1.7120907673        1.7148307400
 O          0.1042244509       -0.4266869813       -4.3520022417
 H          0.1309079343        0.5187468079       -4.1087382852
 H         -0.7853277506       -0.5444932381       -4.7199534666
 O          2.4170650709        4.1151246069        2.3233856408
 H          2.7667444437        3.2629558264        2.6364126744
 H          2.6454382329        4.1213741880        1.3777415545
 O          0.4154317346       -4.0114512360       -1.2017612131
 H          0.2282905424       -4.6731592990       -1.8681406626
 H          0.0863901193       -3.1412479768       -1.5716411452
 O          1.6401537818        0.7872096604        4.5824627093
 H          2.2948788903        1.1175676326        3.9396326201
 H          0.8213629376        1.2954959665        4.4412132945
 O          5.9876640716        1.0653840076        1.8662400361
 H          6.8327816071        1.0569192142        2.3155050429
 H          5.7534897359        0.1176627140        1.7071387522
 O         -4.2094711472        1.8671298339        1.7658512147
 H         -3.5122632624        2.3842344380        1.3264195102
 H         -4.9054055932        1.7960076051        1.0920538260
 O          2.8939774140        3.3912848681       -0.2520969405
 H          3.4904937162        3.6781631966       -0.9552805704
 H          3.1045657560        2.4450264019       -0.1146028786
 O         -0.6994782172        2.1747882822        4.2549272971
 H         -0.7628011474        2.7796677330        4.9955224391
 H         -1.5738082456        1.7012784242        4.2186086280
 O         -0.7764044995       -3.1143189451        3.0309824069
 H         -1.5849253774       -2.6895298048        3.3699683267
 H         -0.0444219093       -2.5643311449        3.3642613775
 O         -3.0485632006        1.0275253239        4.1705564652
 H         -3.0141682592        0.0585040302        4.1086656484
 H         -3.5136645559        1.3465615413        3.3800774824
 O         -2.0203813544        1.0800051520       -2.0799864448
 H         -1.2482460236        1.5728351509       -2.4011906867
 H         -2.7640336772        1.7150286575       -2.0310038688
 O         -2.3673544351        3.3840394142        0.3209329217
 H         -1.7070505977        2.9425476052       -0.2327762518
 H         -1.8444955447        3.8378908338        0.9961869228
 O          0.5472069730        0.0556165208       -0.2452631500
 H         -0.0241005439       -0.1408156575        0.5039895991
 H          0.4108204367        1.0254622270       -0.4206955416
 O         -2.2091645420       -0.7044869806        0.2474149025
 H         -2.0280650915       -1.6493071186        0.1100083445
 H         -2.2030260015       -0.2406668375       -0.6042407716
 O         -7.9953194418       -0.2265423801        0.3712666640
 H         -8.4269118517       -0.3319421281        1.2195429334
 H         -7.5255293403       -1.0529791072        0.1977632099
