  282
       -473.35807725
 H          0.4846506708        0.3932216494       -1.7136046792
 C          1.0293374088        0.2211850967       -0.7834326855
 H          0.8987707362        1.0858951627       -0.1290671406
 C          2.5003377758        0.0223845210       -1.1079002943
 H          2.8879683479        0.9191566320       -1.5795824985
 H          2.5923277575       -0.8102567128       -1.7997758568
 O          0.5424194156       -0.9408256422       -0.1444610949
 H         -0.4359438369       -0.8378066203       -0.0821386068
 N          3.2639679772       -0.2892577760        0.1154801012
 H          3.8399070907       -1.1366893078       -0.0418604289
 H          2.6377012649       -0.5104400160        0.9279746534
 H          3.8976565100        0.4793000669        0.4003023791
 O          5.3790444321       -0.9697129280       -1.4863156776
 H          5.2277078281       -1.7336638069       -2.0767345165
 H          6.2590010455       -1.0758227001       -1.1213989767
 O         -1.8115527779       -1.1323181278        2.4525669930
 H         -2.7180237608       -0.7966228125        2.3718079798
 H         -1.7448267538       -1.4327490788        3.3665728791
 O          0.7931923273        3.0026623410       -2.0672834854
 H          1.4439973343        2.9847630229       -1.3355982835
 H          0.7413952155        3.9510690382       -2.3280896683
 O         -0.7053812160       -2.7734043889       -2.0884922337
 H         -0.8951528683       -1.9834368890       -2.6271935202
 H         -0.7879992387       -3.5374816537       -2.6959398595
 O          0.3420561967       -5.3747350765       -0.4109231132
 H          0.2848656033       -5.8385547515        0.4468636995
 H         -0.5513239630       -5.4208060812       -0.8065327070
 O          1.0345760282        5.2727952799        2.0295649518
 H          0.6952961091        4.4701346888        1.5530147640
 H          1.5850138443        4.9271073953        2.7606817446
 O          5.1291069452        1.6901746737        0.7143795094
 H          4.9876527576        2.6537215742        0.7757809654
 H          5.8911855685        1.5565462179        0.1247584867
 O          5.4953276143        4.1262175438        3.8953510877
 H          5.5103046788        3.1439184585        3.7927263300
 H          5.9057101746        4.3338601237        4.7340472686
 O         -0.4757842974        1.4665124740        4.8337664929
 H          0.3570971612        1.8771156204        5.1816263820
 H         -0.5162601699        0.6005894003        5.2699116891
 O          7.4379678472        1.5232023820       -0.7502506357
 H          7.5316535147        1.2246139826       -1.6746754809
 H          7.5549415141        2.4866448750       -0.7550039910
 O         -2.1267180360       -5.6693555138       -1.5286765006
 H         -2.6268106676       -4.8245057543       -1.5686738352
 H         -2.5039523660       -6.1381633637       -0.7769837443
 O          1.3662027620       -3.2935505910        0.9490506436
 H          1.0342376446       -2.4162649525        0.6925092303
 H          0.9211393231       -3.9453899530        0.3708694543
 O         -3.3488641739       -0.8734616819       -2.3734891000
 H         -3.1099173351       -0.1957977138       -3.0284519879
 H         -4.2767568530       -0.7230348565       -2.1303179499
 O         -2.0331718833       -0.4875822835       -0.0965124863
 H         -2.2272334538        0.4085706117        0.2299208227
 H         -2.4706439899       -0.5855712394       -0.9631905298
 O         -1.7832030194        4.5039425288       -3.5402904816
 H         -1.7311156033        3.8175849359       -2.8403254564
 H         -2.6591908890        4.8859056381       -3.4126917418
 O         -6.1906604869       -4.3774982881        2.2237757742
 H         -5.2510131029       -4.2849626865        2.4583367940
 H         -6.5112109367       -5.1639017286        2.6644949344
 O         -1.7833249193        2.4641674309       -1.7293166335
 H         -2.1618885891        2.3807536661       -0.8380455396
 H         -0.8117970097        2.5445972706       -1.6339209127
 O         -0.7758182183       -0.8985514484       -4.0033624597
 H         -0.2875349351       -1.5281122133       -4.5855679387
 H         -0.2693962420       -0.0628708858       -4.0286568620
 O         -4.4878930930        4.6558209186        1.5257685400
 H         -4.6148948185        3.9573955398        2.1781368820
 H         -5.1674554948        4.5078196422        0.8438152662
 O          0.4444103673       -2.7250432025       -5.4815650789
 H          0.2187052199       -3.5974304753       -5.1451956194
 H          1.4157788256       -2.6457264861       -5.4508614994
 O          5.4579302492        1.5327204537        3.3757984119
 H          6.1965275854        0.9381914324        3.5915385072
 H          5.3073082459        1.4783319010        2.4042922438
 O          5.1391679430       -2.9605327448       -3.3165591898
 H          4.4610672787       -2.6859659354       -3.9866392526
 H          4.8931544825       -3.8474819952       -3.0485288519
 O          7.9038133823       -2.5663072562       -0.4268585576
 H          7.1154188088       -2.9861833726        0.0374547146
 H          8.6349047774       -3.1712947270       -0.3007451105
 O         -7.6259534921        2.8867911818       -2.5966364700
 H         -6.9306711323        2.6204940085       -3.2150385621
 H         -7.2087880028        3.4282641358       -1.9007204881
 O          5.0340215514        1.0828961994       -3.1588925463
 H          5.9262012806        1.0629111278       -3.5349465123
 H          5.0551051892        0.3668997590       -2.4836592712
 O          3.0389150006        5.7695200823        0.2950926877
 H          2.3576404833        5.8082956067        0.9934540005
 H          3.8650461532        5.4811351741        0.7177431707
 O          7.8670104462       -0.3404621766        1.1557415242
 H          7.8271342978        0.4025652092        0.5269741125
 H          8.0231111782       -1.1366652382        0.6150635870
 O         -0.2602003072        6.5033799176       -0.3073050980
 H          0.3178568005        6.3786350736        0.4505881400
 H         -1.0332658570        5.9267025390       -0.1525519105
 O         -5.0729131984       -2.7995359185        5.4179271976
 H         -5.7071332987       -2.3590873404        4.8255618622
 H         -5.5902646143       -3.2371204908        6.0938360191
 O         -5.6755056421       -1.3952728142       -4.5027522286
 H         -5.7842516439       -1.1167948605       -3.5700203567
 H         -4.7403596655       -1.2722004346       -4.7428723495
 O         -1.0039139338       -3.8791304734        2.9642920566
 H         -0.9994792221       -3.5104922876        2.0569032415
 H         -0.3297178084       -3.3688192687        3.4614352932
 O          0.6357940765        1.3910883252       -4.1557499410
 H          0.0871805537        1.8931508189       -4.7796352423
 H          0.7510084551        1.9785581891       -3.3763703108
 O         -1.5600954710       -3.1533356261        0.4490342891
 H         -1.2075147288       -3.0864908504       -0.4578117121
 H         -1.8065842572       -2.2435289404        0.6846049741
 O         -1.2446316420        2.8384177113       -5.5418963677
 H         -1.1491909366        3.2631028928       -6.3934640496
 H         -1.4223594065        3.5489738008       -4.8801075952
 O          1.0030494316       -2.5806505298        4.1447828181
 H          1.3242782982       -1.9665707542        3.4359221161
 H          1.5972644424       -3.3470498721        4.0927820247
 O         -0.1461068081        0.9224508624        2.2812136466
 H         -0.2616849938        1.1780449110        3.2277732429
 H         -0.8123895797        0.2130831920        2.1434787599
 O         -2.5597380282       -1.5809151169        5.1164759519
 H         -3.1943479067       -2.0497284074        5.6658761490
 H         -1.7771660796       -1.3871356260        5.6513679043
 O          7.7232768115        0.6459403867       -3.3282082403
 H          7.7225876028       -0.3475122518       -3.2927451903
 H          8.4554824811        0.8882289010       -3.8945746981
 O          2.2998233766       -4.6981519461        3.0362321951
 H          1.8302851128       -5.5331424677        2.9535121253
 H          2.0207346050       -4.1712944792        2.2590471032
 O         -6.7195517839       -2.7413563228       -0.0757809847
 H         -5.8171123522       -2.6330354294        0.3178261958
 H         -7.0344766836       -3.5809106433        0.2623925356
 O          1.7008023757       -5.4490466182       -2.7652874825
 H          0.9356187754       -5.4782549640       -3.3533092219
 H          1.3446727275       -5.6009030562       -1.8702326327
 O          5.2134914003        4.3889214788        1.1889493927
 H          6.0275530271        4.5054628745        0.6752813671
 H          5.4323993110        4.4510618221        2.1301590153
 O          0.5976126294        5.5769421633       -2.6543908966
 H         -0.2315781677        5.5015911520       -3.1476520351
 H          0.3577569822        6.0104389374       -1.8011861189
 O         -4.2785378215       -2.3546244155        0.8269337356
 H         -3.9618036072       -2.7835621721        1.6398265404
 H         -3.8391379545       -2.7887529688        0.0709070809
 O          3.0648450744        0.3962130654       -4.9717957416
 H          3.7366234246        0.7321768802       -4.3574766540
 H          2.2113808729        0.7786031463       -4.7063887553
 O         -2.2661246191        4.7326697384        0.0784967972
 H         -2.9908751227        4.7171360870        0.7412858000
 H         -2.7311821009        4.6873779195       -0.7751217773
 O          3.6338678290       -2.9992600945       -0.3965775296
 H          3.1539355969       -2.9577446524       -1.2453899862
 H          2.9186001844       -3.1566335343        0.2533066795
 O         -8.1889511070        0.6877293980       -1.3030943579
 H         -8.0260734245        1.5582936944       -1.7603728691
 H         -9.0243414138        0.3694839355       -1.6447619142
 O         -5.4532260105       -3.8929982302       -3.6348607760
 H         -5.6295364525       -3.0044344896       -4.0375767551
 H         -6.1712034322       -4.4663657455       -3.8988275031
 O         -0.0444780349       -0.9949754035        6.0248575299
 H          0.3974430130       -1.5931762268        5.3828067909
 H          0.6057178737       -0.7808229198        6.6946766244
 O         -2.8984912591        1.3325144705       -3.8863990291
 H         -2.3464381159        1.6662274339       -4.6047902147
 H         -2.5469908630        1.7419252630       -3.0671757378
 O         -2.2138758188        2.9553453792        3.2935194097
 H         -1.6741330231        2.5293786764        3.9753186364
 H         -1.9650279434        3.9059997337        3.2827727165
 O         -4.9240131575        0.3064286013        0.6429187006
 H         -4.5501320886       -0.5892635529        0.6991277283
 H         -5.8407677711        0.2354460497        0.9604076439
 O         -6.5999318825       -1.8671837108        3.3295468371
 H         -7.0855043563       -1.2548369262        2.7539585946
 H         -6.5681625803       -2.7127867748        2.8474390888
 O         -3.0344375783       -1.2401953926       -5.3353576818
 H         -2.2373949313       -1.0325754086       -4.7857279623
 H         -2.8148925774       -1.0038103360       -6.2358568953
 O          2.7544603382        3.1812562070       -0.3034791124
 H          3.5818904050        3.1149277077       -0.8226176168
 H          2.6904483035        4.1392432778       -0.1002549635
 O          2.5098128775        1.9828751586        2.0512857211
 H          1.5773957970        1.7436448202        2.0993790397
 H          2.6314376619        2.3976235310        1.1726390793
 O         -4.0158295162        4.5055409295       -2.0381034837
 H         -4.8253057085        4.8750223589       -1.6773440489
 H         -4.0947123896        3.5407544707       -1.9368622976
 O         -5.5860368281        1.4943758127       -4.0226557676
 H         -5.8994236818        0.7029651956       -4.4742898163
 H         -4.6150334211        1.5148149926       -4.1458745036
 O         -6.0396893170       -0.8021143029       -1.9053917532
 H         -6.2436764077       -1.6177455251       -1.4252279061
 H         -6.7887446301       -0.2004429344       -1.7090687037
 O         -7.5019033900       -0.4597985275        1.1761705545
 H         -7.8947882912        0.1984862909        0.5883127622
 H         -7.3874533016       -1.2703786260        0.6430540208
 O          3.0492422164       -2.2330956659       -4.7592280990
 H          2.5766600309       -2.3323640209       -3.9045102298
 H          3.0861780322       -1.2644081956       -4.9399252986
 O         -2.7337763996        1.9314409706        0.8443377845
 H         -2.4960592463        2.3086078487        1.7126891510
 H         -3.6346079688        1.5863784002        0.9403824662
 O         -6.2731013511        3.7665734321       -0.3805575101
 H         -6.7850502783        3.3488992897        0.3366156883
 H         -5.6709771558        3.0492491297       -0.6885008038
 O         -0.0751684566        3.2408114036        0.7674533899
 H         -0.9046112512        3.6838541397        0.5127641601
 H         -0.3184217219        2.4688930518        1.3019864741
 O          4.9876386724       -4.2034442059        3.4502903831
 H          5.3520854322       -4.1476792474        2.5518011455
 H          4.0557027969       -4.4613380453        3.3498894960
 O          1.8901636927        2.2442936097        5.6347279626
 H          2.1452374364        3.0087249067        5.0859992233
 H          2.4105038424        1.4965168801        5.2945754908
 O         -0.8607727684       -4.8605323128       -3.8047039395
 H         -1.2575873204       -5.4643621896       -3.1610957696
 H         -1.6219060783       -4.5720272364       -4.3633308511
 O          5.8559298835       -3.4417291879        0.8928116067
 H          5.1027976392       -3.5681308688        0.2843748439
 H          5.6396148082       -2.5532218803        1.2847442083
 O         -3.0284607289       -3.9723284417       -5.0123231719
 H         -3.8476577742       -4.1207332687       -4.5165891766
 H         -3.0008896465       -3.0164403089       -5.1945743285
 O          7.5756752157       -0.1759098145        3.8394128532
 H          7.8231351593       -0.2864100974        2.9014008431
 H          8.3720938663        0.0717518813        4.3083401891
 O          5.2720310334       -1.0506000780        1.7920816662
 H          6.1385839769       -0.6423616310        1.6386061749
 H          5.1712592437       -1.1899688721        2.7548385166
 O          1.8901628397       -0.8063560598        2.4157023767
 H          1.1064011540       -0.2294684694        2.2943512549
 H          2.4591107272       -0.3514353827        3.0771328562
 O          2.7116607904        3.9975304606        3.7098945596
 H          2.7051223765        3.2119223690        3.1012349307
 H          3.6429919501        4.2378243369        3.8115652137
 O         -2.7122372303       -5.5988599173        1.1324946744
 H         -2.3096699339       -4.7546804381        0.8546888899
 H         -3.1809869428       -5.3959045865        1.9435781288
 O         -7.1214722313        2.3868733444        1.7550295499
 H         -7.8244078938        2.5371754223        2.3850867645
 H         -6.2943332544        2.3324884243        2.2704193163
 O         -0.0418896151       -6.2504435076        2.1339512543
 H         -0.8297811947       -6.7783280635        1.9847227726
 H         -0.3784116751       -5.4039069649        2.5081517536
 O         -4.7250285370        1.8961487392       -1.4583510969
 H         -4.7860561471        1.1963615215       -0.7744232968
 H         -5.1563661934        1.5707917930       -2.2635560378
 O         -1.4691975971        5.4994118777        3.1011222739
 H         -2.0325635257        5.9968329570        2.5061144126
 H         -0.5562052891        5.5573488110        2.7576979699
 O          7.7194566290       -1.9786885792       -3.1487367698
 H          6.8740056887       -2.3773518884       -3.4132272562
 H          7.8631495362       -2.2426048423       -2.2254208449
 O          5.1643833561       -1.7542130028        4.3890234900
 H          6.0823611224       -1.5747744347        4.6086266129
 H          5.0971139352       -2.7156851395        4.1539425392
 O         -3.6355495992       -3.4433774372       -1.6074799117
 H         -4.3688054915       -3.6858567899       -2.1926299941
 H         -3.2724161810       -2.6184620040       -1.9759150714
 O          1.9384575005       -2.8572055034       -2.4378542630
 H          1.9325277572       -3.8297710472       -2.6164807266
 H          1.0207836450       -2.6603937814       -2.1493468213
 O          4.8527532296        3.4117187825       -1.9093153373
 H          4.8808282222        2.6304782673       -2.5013872067
 H          4.3541314410        4.1430918440       -2.3389017922
 O          3.3279242572        0.2454492585        4.3897647546
 H          3.9899327065        0.8355753555        3.9738928819
 H          3.8345446404       -0.5398485446        4.6472962114
 O          3.3702500445        5.5215832766       -2.4888185583
 H          3.3221572324        5.8501271405       -1.5789144055
 H          2.4549932982        5.5554589179       -2.8020373258
 O         -4.8045702281        2.2480944703        3.1749127846
 H         -4.6930683561        1.2779123326        3.1774298179
 H         -3.9139283511        2.5826449333        3.3915866259
 O         -3.6664008517       -3.7513114329        3.1449508468
 H         -2.6818535562       -3.7506768269        3.1908486092
 H         -3.9765256187       -3.3797359118        3.9826250321
 O          7.0915159162        4.2486260416       -0.8248838194
 H          6.2534247209        3.9806089072       -1.2852446405
 H          7.4456786192        4.9908899158       -1.3140551032
 O         -4.2874824691       -0.4062895592        3.2907371502
 H         -5.1026304739       -0.9372243374        3.2647620820
 H         -3.8088576048       -0.6590000591        4.0927776377
