  99
       -167.96883162
 O         -2.5276903331        3.0497649989        2.0161782361
 H         -2.0690629956        2.5968627979        2.7381823608
 H         -3.2949002757        2.4970113464        1.8069217932
 O          3.7211551040       -3.0789180582       -1.2412204950
 H          3.1768481144       -2.8539374234       -0.4669001478
 H          3.2679084105       -3.7935405166       -1.6926659978
 O         -1.0725846973        4.0957703080       -0.1309663048
 H         -1.6517898042        3.8325419789        0.6029679248
 H         -0.1640115219        3.9703501354        0.1816213667
 O         -2.0001687771       -2.4100163349        2.6065849725
 H         -1.5948476205       -1.8392988342        1.9270981675
 H         -2.5162602083       -1.7914281970        3.1587168649
 O         -0.9917547997       -1.3552812671       -3.9676967886
 H         -1.0310461629       -1.5378461871       -4.9076240856
 H         -0.4032430164       -0.5633685879       -3.8756347879
 O          1.6118478640        2.7030516148       -2.3735658120
 H          1.5954986229        2.7760450063       -1.4019960150
 H          0.8713354043        3.2691832866       -2.6770340249
 O         -3.1599431586       -0.2216698268        3.6688806135
 H         -2.4524248453        0.3904395787        3.9033448141
 H         -3.6758846389        0.2171872779        2.9724585431
 O          3.9772985682        0.9937154938        0.0560751012
 H          4.3394681145        0.2360341391        0.5428130143
 H          3.0442781566        0.7370668339       -0.1504820310
 O          0.8351864515        0.5213822473       -3.8139625235
 H          1.6410002464       -0.0065885530       -3.7823055178
 H          1.0447606413        1.3393474356       -3.3179642640
 O          0.7346540102       -2.5949792966        3.0080736089
 H          0.8446981169       -1.9414849838        3.7267543362
 H         -0.2223120418       -2.7568873873        2.9626174724
 O         -3.5581318249       -0.7663657428       -3.1238320818
 H         -3.8489296486       -1.4537842054       -2.5060320070
 H         -2.6868358684       -1.0601187565       -3.4409777755
 O         -2.7555623531        1.8692136838       -3.3852330900
 H         -3.0743171612        0.9587505141       -3.2554202418
 H         -3.2049988358        2.2004485360       -4.1633913721
 O          4.3869841686       -1.1367928167        1.7343707324
 H          5.0517109133       -1.8032914595        1.9035872909
 H          3.5787259398       -1.6157513687        1.4080404054
 O         -2.7575922878       -3.9388566673        0.4633844474
 H         -2.6398544950       -3.5220142061        1.3386666967
 H         -1.8634948788       -4.0341357418        0.1071281522
 O          3.7902830238        2.8701813490        1.8830610416
 H          3.9463018865        2.2212172420        1.1469377832
 H          4.5602539053        3.4361831864        1.9235044240
 O          0.8783399052       -0.5371368959        4.7783011608
 H          1.6507108539       -0.0651724750        4.4359859759
 H          0.1159912573        0.0442295618        4.6593540595
 O          2.9628274159       -0.9779378997       -2.7915224425
 H          3.5041834731       -0.1505685501       -2.8515275204
 H          3.5101996439       -1.6355114677       -2.3239177550
 O         -4.3955192882       -2.6711165206       -1.1770279978
 H         -3.7724000020       -3.1425184419       -0.5638938776
 H         -5.0708835949       -3.3122092817       -1.4015132829
 O         -0.9327753119        1.5790610105        3.8724474075
 H         -0.3889883958        1.3409038439        3.0743928324
 H         -0.4817106858        2.3022430270        4.3099960940
 O          2.1513877420       -2.1862857342        0.8381274450
 H          1.7947676243       -1.3921905852        0.3780812598
 H          1.6090628976       -2.3257749648        1.6558828425
 O         -0.7528293779        3.9093058851       -2.8784911471
 H         -1.4119326815        3.2375939870       -3.0990719781
 H         -0.9736715637        4.2003301079       -1.9788130574
 O         -0.0383329487       -3.6327204260       -0.3250460568
 H          0.7217861951       -3.8211113423        0.2334858873
 H          0.3093267651       -3.4464027511       -1.2288269046
 O          0.5612019482        0.8596150363        1.8535420160
 H          1.4052824199        0.5966485242        2.2765286556
 H          0.2014285154        0.0997304303        1.3635618558
 O          2.8720556852        0.6237336940        3.1945697289
 H          3.4919323080       -0.0242326095        2.8176360580
 H          3.2143302113        1.4990055938        2.9476642587
 O          0.8887287803       -2.9205974207       -2.7087032516
 H          1.6176590761       -2.2877165719       -2.7749623314
 H          0.1360599239       -2.4929371652       -3.1538071143
 O          1.6111974660       -0.0112892112       -0.6239316116
 H          1.9305556280       -0.3297205183       -1.4877327399
 H          0.7480550222        0.4723939945       -0.7935096723
 O         -5.2384979281       -0.1191771276       -0.5880395021
 H         -5.0216220891       -1.0661491826       -0.6585072849
 H         -4.9787636185        0.2623740809       -1.4308649828
 O          4.0594344873        1.4189781743       -2.6777108703
 H          4.2791269104        1.4066251971       -1.7326568587
 H          3.2893683207        2.0072248592       -2.7493603848
 O         -4.5735451849        1.1506881517        1.6908740220
 H         -5.4239672889        1.4279704017        2.0349724674
 H         -4.7649933246        0.6782350586        0.8520295190
 O          1.4166778045        3.0077664025        0.4029086609
 H          2.1975180281        3.2243012527        0.9288994141
 H          1.0377835674        2.2091108951        0.8192287316
 O         -0.8354675572        1.2270980088       -1.1025527365
 H         -1.2302233693        1.2826988510       -1.9792411981
 H         -0.9518025204        2.1067555987       -0.7102466987
 O         -0.7362832075       -1.1396626133        0.5210368501
 H         -0.5147007749       -2.0179670100        0.1437591778
 H         -1.1421128821       -0.6029412216       -0.1684060883
 O          6.1976489749       -0.5333134733       -0.8049288946
 H          6.0964037323        0.1065686048       -1.5133700668
 H          5.7195477968       -1.3256976798       -1.0615347614
