  87
       -142.30788035
 H          0.4414849940       -3.3500755085        1.8830838029
 C          0.5290688786       -2.3353597296        1.4884909499
 H          0.0391927296       -1.6419363116        2.1779052763
 C         -0.1738206719       -2.2676421802        0.1321993460
 H         -1.2201244289       -2.5415204631        0.2641601100
 H          0.2857574179       -2.9601809995       -0.5738304201
 O          1.9023605964       -2.0489704915        1.3962106022
 H          2.0016156533       -1.0684081941        1.2863276819
 N         -0.1034280383       -0.9083528415       -0.4361392152
 H         -0.7200958506       -0.8710261657       -1.2835906382
 H          0.8680095401       -0.6548661009       -0.7401948668
 H         -0.4511263601       -0.1804218244        0.2305590141
 O          0.7170002627        4.6557352377        1.0636035582
 H          0.1995575558        4.1450223069        1.7156540824
 H          1.3800270769        5.1378183333        1.5595329538
 O          0.3306961357        2.6777406062       -2.8776699790
 H          0.5165441235        3.5467796483       -3.2358658821
 H          0.7832870888        2.6456975251       -1.9901235133
 O         -3.3869281025       -2.9525160266       -0.1524824998
 H         -3.7642521439       -2.3962795447       -0.8587397624
 H         -3.5928735901       -3.8621064003       -0.3728381012
 O          2.0861399274        0.5889809682        1.0453119938
 H          1.9564705799        0.9823905046        1.9563533923
 H          3.0529914608        0.6303831800        0.9071278277
 O         -2.9382694722        1.9828008955        3.7412700085
 H         -3.5481262989        2.2121711546        4.4431338698
 H         -3.4628885691        1.7879259052        2.9470305060
 O         -1.3535784769        1.2153010650        0.6490908240
 H         -1.5275139878        1.5939074156       -0.2360993667
 H         -2.2354695304        1.0444378118        1.0359217067
 O          2.2126242045       -0.3516924330       -1.7430784037
 H          1.8791508291       -0.2300361731       -2.6496312050
 H          2.8573451022        0.3932967526       -1.6268767090
 O          3.8243946711        1.7221163666       -1.5939917814
 H          4.3983860540        1.5295763833       -0.8382373585
 H          3.1483699674        2.3394543714       -1.2667138988
 O          0.7798040981       -0.4973338135        4.7243659378
 H          1.2177608225       -1.3435289858        4.6233020959
 H         -0.0745442759       -0.5561814313        4.2633940595
 O         -2.0133541458        1.7714177260       -1.9098537017
 H         -1.2973063385        2.2877269693       -2.3235130356
 H         -1.8950389805        0.8672337953       -2.2683882570
 O         -3.9364828821        0.8947205086        1.4221429578
 H         -4.3319790122        0.9950318901        0.5418688326
 H         -4.0329568680       -0.0378503636        1.6823981588
 O         -0.0454387415       -1.9649681809       -4.1615400316
 H          0.4678830386       -2.5774908308       -3.6001814027
 H          0.5335865304       -1.2216428473       -4.3790333173
 O          1.3161665552       -3.6604372314       -2.4784106172
 H          1.5379291848       -4.4921023461       -2.8977809124
 H          2.1060633839       -3.3898892810       -1.9589892888
 O         -4.5657436538        1.2580771677       -1.2598195154
 H         -3.6741041637        1.5790823500       -1.5161274691
 H         -5.1919606541        1.9166844338       -1.5649217496
 O         -3.8478536271       -1.7259071130        2.2017770981
 H         -4.4204192053       -2.2746515092        2.7394167532
 H         -3.6508500590       -2.2257708983        1.3830261067
 O          1.7808833499        1.6419679276        3.3893571092
 H          1.5298412471        0.9262201106        4.0040988977
 H          0.9823045525        2.1882713312        3.2838205441
 O          1.5047599150        2.6771466569       -0.5486774288
 H          1.2283263587        3.4389989189        0.0042707638
 H          1.5680022895        1.9009260269        0.0512711900
 O         -4.4026435415       -1.3292712373       -2.1118349162
 H         -5.1159829868       -1.5236237137       -2.7218075947
 H         -4.5367894502       -0.4132748631       -1.7926395896
 O          5.6266423006       -1.7209306270        0.0244148370
 H          4.8451578073       -2.1963363989       -0.3262404844
 H          6.3505948058       -1.8830247393       -0.5811787926
 O         -1.7120181492       -0.7921956479       -2.5880550101
 H         -1.1574216938       -1.2571570000       -3.2793341649
 H         -2.5870027500       -1.2021196506       -2.5807378497
 O          3.2455316278       -2.6471193904       -0.8901095895
 H          2.8318713201       -2.6589596333       -0.0031502563
 H          2.9949128283       -1.7709528436       -1.2585744939
 O          4.7906973478        0.6926204572        0.7692095445
 H          5.2345328472        0.9364256278        1.5827801434
 H          5.1337625352       -0.1968679486        0.5200717759
 O          1.3390213919        0.4872695681       -4.1618336547
 H          2.0523015744        0.8092754690       -4.7154804577
 H          0.9025204284        1.2761754323       -3.7784329357
 O         -0.5454940588        2.8636105077        2.6424120679
 H         -0.7350228665        2.2431125388        1.9091686335
 H         -1.3108641659        2.7992392375        3.2283326914
 O         -1.5377946832       -0.4258214448        3.2254384197
 H         -2.2989960429       -0.9687721617        2.9813861210
 H         -1.8987526166        0.4231934275        3.5205699783
