91
 energy: -147.739284770711 gnorm: 0.000492822908 xtb: 6.5.1 (579679a)
C            1.11007422431075       -0.57898119302350        0.24299919610391
C           -1.24317269653009       -0.09591739986359        0.46049100991190
C           -1.73071711713382        0.85119628058962       -0.62998223894877
C            1.54951200105795        0.61528099305471       -0.48142104699174
H            1.68902880840894       -1.44776546556705       -0.07157453273780
H           -2.06711620747890       -0.71232440153636        0.82276277254952
H           -2.32204529526843        0.31155835327225       -1.36009814948819
H            1.83433335997271        0.56322156138034       -1.51271881845640
H            1.20925318611829       -0.43018776435795        1.32179994472052
H           -0.83826141288139        0.47170047348722        1.30127805303789
H           -2.34104573847458        1.63568506781987       -0.19765760906800
H           -0.88104507611501        1.29858258402560       -1.13298395450353
O           -0.25903775069070       -1.00254742352812       -0.00872601322835
N            1.52613776074527        1.88272336099864        0.09705864522330
H            2.32968103813860        2.44921724618059       -0.15068189428910
H            1.34300006271477        1.88262995118537        1.09571325896677
O            1.09467361064225       -3.90844114476520       -0.25113583779844
H            0.18552661276120       -3.58503059575163       -0.17457054811983
H            1.55998755136853       -3.61637819549650        0.55045476081068
O           -3.18893660037489        2.08440655002585        2.16645686319668
H           -2.64391597996658        1.67287266919355        2.85004819027064
H           -2.65002809225538        2.79014279886278        1.77910372931401
O           -0.30464084940238       -1.17043172628900       -2.72892067335349
H           -0.30599613351737       -1.11147563954602       -1.74718852191187
H           -1.24052949556113       -1.23388926358284       -2.98164586272606
O           -3.03083891538122       -1.09981838944256       -3.25425290884835
H           -3.39136505388763       -1.54011301090203       -4.02440043832625
H           -3.23762789303307       -0.13554883601024       -3.36410362376782
O           -3.55237876562910        1.47207806479176       -3.47735003878687
H           -4.07393448340860        1.89001305536846       -2.79065200473050
H           -2.70655111025598        1.98609337010075       -3.52236202660700
O            1.97769714252477       -2.73292906459323       -2.53910007449167
H            1.73794768038372       -3.26348973449109       -1.75100440160662
H            1.17435809347188       -2.23523867598600       -2.75835319362821
O           -1.30584972121496       -3.04522463110630        2.59884195727113
H           -1.40082691046650       -3.17913131631746        1.62899174340635
H           -1.16795958893804       -3.91111773806974        2.98452273839819
O            4.26336573837022        1.10686120964906        1.53428760040184
H            3.54769803328995        1.04296628356454        2.21404099138163
H            5.05041562461526        1.37384133763674        2.01073775321255
O            0.23273339755097        2.47833688435234        2.71478999475717
H           -0.30396770658006        3.12744522724749        2.23512584480278
H           -0.39324701086152        1.90277383463600        3.18339526828680
O           -1.44401389859837        4.08012775820805        1.14151276308953
H           -0.99750548926514        4.01566153568160        0.27221224198406
H           -1.60156066763308        5.01156439407303        1.29938486358756
O           -3.77979004970861       -2.11704559337533       -0.77169077411215
H           -3.55269954251210       -1.73284127490976       -1.63565300237223
H           -4.00995747116611       -1.38301254588225       -0.18393376398563
O            4.36095985442705       -1.51158484218864        0.70350062252952
H            4.33992743144656       -0.59399034124611        1.02968731406145
H            4.23107155669978       -1.43767852429341       -0.26101574847046
O           -1.72837518309688       -3.59965193992864        0.01775333469550
H           -2.45647862027931       -3.00322598225683       -0.28670126318848
H           -1.97346259196548       -4.48202558245199       -0.26373113727156
O            2.60841471445075       -3.02438107084700        1.94485405949144
H            3.26056213108465       -2.43807291881064        1.47408863976792
H            3.13034049087666       -3.71974733417898        2.34636707225545
O           -0.01144781164316        3.74646626155039       -1.13700449489684
H            0.70789923162520        4.10363527122868       -1.67818560537340
H            0.41995644570905        2.96610559686500       -0.70777243091042
O           -3.28092243154840       -1.28458466412681        3.40963921903545
H           -3.73094833333783       -0.99357265085293        2.60030314151368
H           -2.66254064889588       -1.98501285803629        3.14438087973316
O            4.31698953132930        1.61835315742987       -1.30755658081515
H            4.19337175188416        0.71661667564581       -1.63960324329852
H            4.36460149419685        1.52380770908578       -0.34679074789417
O            0.84521140010784       -1.45644108428418        3.40087658991642
H            1.54402506850034       -1.99551397378909        2.99016832683686
H            0.02730805258796       -1.91029802507131        3.13610869506466
O            2.32250937870093        3.21038417394374       -2.54237911534643
H            3.12511708273157        2.78745608962858       -2.19732645053952
H            1.85801454932361        2.51437706457783       -3.02575020960419
O            2.39683446950580        0.91667602765957        3.40968727558871
H            1.72414128993896        1.60564969307362        3.30242637036291
H            1.91127577113180        0.08381591371381        3.51355907261343
O           -1.27086110734612        2.80756456680089       -3.43416425334566
H           -0.98896396137215        3.22319888805502       -2.60133796285970
H           -0.53918351940302        2.21307922486469       -3.67530884442898
O           -1.36261353367911        0.53102319938602        3.84532514055964
H           -0.59344330952886       -0.03961359489272        3.95796356908154
H           -2.12403538506570       -0.09270453770299        3.80787068212884
O           -4.43806250479268       -0.07693913281350        1.14590056479262
H           -5.36644119836030        0.05724617864142        1.34206931396048
H           -3.98116501004764        0.74987344426992        1.41930326557234
O            0.80053422178465        1.02514246810080       -3.78446204292013
H            1.11764214450847        0.75533239069532       -4.64660888214257
H            0.41270990140171        0.21788028889935       -3.36650662772760
O            3.98748671335032       -1.14145651111286       -1.98357310250937
H            4.71280463696962       -1.48912423942505       -2.50362142116884
H            3.20079374543766       -1.71203570668730       -2.20500736748924
