  144
       -244.35045802
 O          2.4157531244       -1.1333987861        3.1965888072
 H          2.1269558560       -0.3379210296        2.7083040914
 H          1.6317786201       -1.4751939561        3.6371876486
 O          0.4179349276       -5.6848138340       -1.3076463535
 H          1.2748813668       -5.4866402098       -0.8966846524
 H          0.3882749185       -5.2150895375       -2.1482187366
 O         -2.5435525025       -2.7965762436        2.1640172813
 H         -2.3216894825       -3.6487199179        1.7666624063
 H         -2.1865454034       -2.1314411982        1.5027331344
 O         -3.7735330087       -0.8081399442        3.6924417062
 H         -3.4828202179       -1.6162780752        3.2519072616
 H         -2.9781466892       -0.3793641305        4.0274803282
 O          3.7434889040       -0.3107228045        0.2366094409
 H          3.9190690029       -1.2053783208        0.6070431274
 H          4.3469173359       -0.2185812242       -0.5365796439
 O         -0.3726749186       -1.8180326382        3.5976721509
 H         -1.1649173049       -2.3017335186        3.3025270686
 H         -0.6993658967       -0.9765804029        3.9564473889
 O          0.7846833149       -2.6678533125        1.2404316009
 H          0.9679549177       -1.8865593169        0.6896752795
 H          0.4860449754       -2.3489144321        2.1071542991
 O         -4.8965025664       -3.5464117287       -1.5916956045
 H         -5.4077833217       -2.9128230872       -2.1102395386
 H         -4.9625113726       -3.2310738680       -0.6697274958
 O          1.3544506399       -0.7901113822       -0.7047868934
 H          1.6033927536       -1.5972348065       -1.2356384301
 H          2.2179898275       -0.4969664705       -0.3076070269
 O         -4.2445594784        2.6491424817        0.7418416573
 H         -3.9096440493        2.5428318836        1.6509741001
 H         -5.2264811125        2.5300978266        0.8064484175
 O          4.0545996584       -2.6262634887        1.5128347428
 H          3.4433606828       -2.3245226336        2.2089901064
 H          3.6445614863       -3.3956197301        1.0725350380
 O          3.6778353549       -1.2683508622       -3.6082114785
 H          3.1056538109       -0.4896160916       -3.6207663664
 H          4.4381316042       -1.0106010887       -3.0592774804
 O          3.1091436375        2.6785807749       -2.0660821616
 H          2.6976682021        1.9027483109       -2.4838503487
 H          2.6131890822        3.4611423225       -2.3955306004
 O          1.3342826613        4.3591745897        0.7362936199
 H          1.6810562989        5.1966912030        0.4257933916
 H          2.0985302851        3.7526147955        0.7831671492
 O          0.3335511857       -1.1221108017       -4.7492199091
 H          0.8617085411       -0.5394543834       -4.1590354078
 H          0.8418148119       -1.2174143443       -5.5550879009
 O          1.5493814183        4.6369261081       -3.0220220028
 H          1.2022401712        4.1596092831       -3.7827758965
 H          0.7991769141        4.6805060250       -2.4060275512
 O         -1.8572099287        0.6554482307       -4.5015424285
 H         -2.4681900188        0.2415654544       -3.8665158533
 H         -1.2161326895       -0.0325445471       -4.7343099219
 O         -3.3985201316       -0.6533221262       -2.6678936053
 H         -2.9280903241       -1.4768294161       -2.4208490446
 H         -4.3053462048       -0.9174835742       -2.8848032161
 O          5.8035387330        2.4225412076       -2.0554125091
 H          4.8656586342        2.6727477582       -2.1525092753
 H          6.0518726215        2.6400404176       -1.1500077426
 O          0.3336721498        2.3657153134        3.9061926481
 H         -0.0902849541        3.1141898173        3.4666308051
 H          0.9437382134        1.9721812360        3.2425372346
 O          6.1593113601        2.0498113466        0.8318812666
 H          6.6125209798        1.2640750128        0.4710513059
 H          5.9802523905        1.8230415232        1.7518490341
 O          3.4714063121        2.6933511863        0.5782615445
 H          3.3125968948        2.5939718139       -0.3846782746
 H          4.4260271364        2.5529233599        0.6985289066
 O          6.4763686428       -1.5154502070        2.2047450107
 H          5.7911881920       -2.1579982284        1.9619904377
 H          5.9751386547       -0.7543753258        2.5620310687
 O         -4.2647228460        0.1020945744       -0.2230613802
 H         -4.0520898276        0.0634456775       -1.1695729838
 H         -4.2555729666        1.0357109445        0.0486289032
 O          1.7222364274        1.2039806727        1.9466806462
 H          2.5201647885        1.6643061309        1.6183951808
 H          1.0780328067        1.3432998336        1.2211186890
 O          7.3969201217       -0.3158382394        0.0777644121
 H          8.3508307356       -0.3829853015        0.0595300148
 H          7.0909944874       -0.8391058589        0.8713489684
 O         -2.3004534869       -2.9926119972       -1.8556917965
 H         -1.9162198870       -3.3769910710       -1.0327995249
 H         -3.2031855787       -3.3781496926       -1.8878169462
 O          1.6266098670        0.5738694909       -3.0667839781
 H          1.4462838285        0.1581879060       -2.2014348876
 H          0.9411681534        1.2885559284       -3.2005549987
 O         -6.1390061766       -1.1967578315       -2.5693999110
 H         -6.4472373476       -0.9580940179       -1.6723783987
 H         -6.7942832664       -0.8635442489       -3.1824916430
 O          2.5401795387       -4.3872887766        0.0704313457
 H          1.8364247039       -3.9650777993        0.5917318421
 H          2.5812676857       -3.8743741866       -0.7586299952
 O         -1.2055474529       -4.2150777410        0.2445092116
 H         -0.7601909216       -4.9262518135       -0.2604702485
 H         -0.4794931146       -3.6693969543        0.6041689063
 O          5.4388511413       -0.1905035812       -1.8053395618
 H          5.5935182741        0.7596377038       -2.0298532491
 H          6.2291314645       -0.4503404184       -1.3065583624
 O         -1.4226640445        0.5948419271        4.5574661979
 H         -0.7054218222        1.2603286890        4.3196763277
 H         -1.4854103979        0.6176379076        5.5136054307
 O         -0.9848101902        4.2565926919        2.2339804674
 H         -0.1284961171        4.3261394689        1.7771915368
 H         -1.6292125754        4.6219482790        1.6059589275
 O         -6.7204289141        1.8234273704        1.0558582302
 H         -6.5130624366        1.5808321276        1.9815256830
 H         -6.8326731854        0.9838076703        0.5871310792
 O         -5.6194067921        1.2219394571        3.4548329075
 H         -4.9530607783        1.9026735847        3.5968765990
 H         -5.1360850261        0.3816110893        3.5151229957
 O         -0.5639027498        4.1368407882       -1.3223858994
 H          0.0408693036        3.8917937578       -0.6026950969
 H         -1.3855060300        4.4237648334       -0.8954689528
 O         -4.9626106855       -2.2441562081        0.8222436329
 H         -4.3001218460       -2.5719008544        1.4484290977
 H         -4.6183717231       -1.3814380800        0.5108501722
 O         -2.8041241599        4.8129597477        0.1951040941
 H         -3.3937576815        5.5473334326        0.0237803209
 H         -3.3759362768        4.0156102827        0.3095912932
 O         -7.1625931218       -0.8231866358       -0.0229061144
 H         -6.4921886373       -1.3577313260        0.4406425363
 H         -8.0180538745       -1.1618445887        0.2437958654
 O         -3.0439708644        2.5511751029        3.2299469286
 H         -2.3709302529        3.2237908980        3.0550420259
 H         -2.5826614529        1.8217793399        3.6700817541
 O         -0.1547159970        2.4107732970       -3.4561398216
 H         -0.4844651092        2.8781171122       -2.6708768782
 H         -0.8955269160        1.9009217274       -3.8524961087
 O          2.1530361680       -2.8243394050       -2.0962454318
 H          2.7702940860       -2.3944528095       -2.7335936682
 H          1.3727293119       -3.1418256477       -2.6063779640
 O          4.7306377746        0.5040013133        2.6760856002
 H          4.3323204753        0.3572199925        1.7932249380
 H          4.1062565566        0.1151314488        3.2964669487
 O         -0.0832165208       -3.4911227928       -3.3542186307
 H         -0.0527694413       -2.7496302760       -3.9804066155
 H         -0.9205612445       -3.3739902723       -2.8609916436
 O         -1.7829571271       -0.8345955883        0.5415548517
 H         -1.3911557310       -1.0794412317       -0.2994780696
 H         -2.6130747074       -0.3671862118        0.3360986252
 O          0.2252844311        1.6090893645       -0.2326147984
 H         -0.6979171227        1.7216735805       -0.4957612940
 H          0.4589504117        0.7020178346       -0.4709234888
 O         -2.3249341280        1.8763053186       -1.2165314848
 H         -2.8688748060        2.3027163491       -0.5448427655
 H         -2.6451177058        2.1433651943       -2.0780880250
