  459
       -779.20951889
 O          3.6414605233        1.2674705162       -2.8746027045
 H          3.9556678834        1.6114824857       -3.7322484886
 H          4.4468031894        1.0825019746       -2.3541258916
 O          2.5964134934       -0.8992906138       -0.7063551134
 H          2.3808657100        0.0567398161       -0.6015913456
 H          2.5603054454       -1.0674852859       -1.6650154195
 O         -0.1783390042       -1.5771261753       -3.5348923518
 H         -0.0917716601       -1.7064678383       -4.5037529164
 H         -1.0743422467       -1.2471042789       -3.3631574294
 O          2.2425729666        1.7187429462       -0.6681752730
 H          2.9703782450        1.9962909976       -0.0776035686
 H          2.6718404088        1.6993681355       -1.5456505889
 O         -2.6780264446       -0.5176440185       -3.0782711488
 H         -2.9982602344        0.2577074466       -2.5796571491
 H         -2.9339328766       -0.3608423491       -4.0103641228
 O         -2.8149747315       -6.1093211583       -0.0238702470
 H         -2.9138523091       -5.7486579571        0.8805361978
 H         -1.9212467995       -6.5154379090       -0.0280272024
 O         -2.3365577808       -2.6351420633       -6.0199550474
 H         -2.2312481443       -3.1581966318       -5.1990021106
 H         -1.4369432617       -2.4516589663       -6.3288915810
 O          5.2636496491       -1.4749482672       -3.1279467864
 H          4.2734964766       -1.4939824168       -3.0790448245
 H          5.4339601692       -1.0660686490       -4.0120478896
 O          1.0658895774        0.8630455659       -3.6951208967
 H          1.9637230625        0.8820909910       -3.3365834398
 H          0.7284576372       -0.0392148564       -3.5602513905
 O         -2.1871433260       -2.5477301488        2.9707282723
 H         -1.2711652651       -2.5915823455        3.2966428064
 H         -2.3756180896       -1.5977719418        2.8850399982
 O         -5.1003060534       -1.6557564453        2.7937484917
 H         -4.4185798158       -1.5989489000        2.0964323718
 H         -4.6607448162       -1.9363579743        3.6242670382
 O         -5.2882202775        3.5174309984        2.0731809928
 H         -6.2072675206        3.2236871976        2.1551139397
 H         -5.1213518226        3.5682590350        1.1031062497
 O          4.6033949556        4.9191469738        2.4976685502
 H          3.9352429665        4.2097942807        2.5295759718
 H          4.1704868139        5.7008919623        2.8454602433
 O          1.0358439508        7.2846543539       -1.0238682398
 H          0.5422333607        7.0437580319       -0.2215101840
 H          1.0163198966        8.2388712925       -1.0860742418
 O         -2.6141888537        7.3507588970       -0.6898600902
 H         -2.8274578121        6.8748366870       -1.4983535675
 H         -3.3997964379        7.3071008314       -0.1254783452
 O          1.8739778252       -2.4598513237        1.5762796114
 H          2.0276600952       -1.7292488071        0.9646919054
 H          2.7073409265       -2.9813162434        1.6228597959
 O          4.5288414162        2.0280734202       -5.2749775553
 H          3.6920276753        2.2263125553       -5.7242762661
 H          5.1656881702        2.7648569798       -5.4256897773
 O          4.6252341390        2.1637039053        0.3581766863
 H          4.8782381720        2.0497649106        1.2979316809
 H          5.1307563159        1.5260261842       -0.1687139644
 O          0.8931494049        3.3921519275       -2.4329887386
 H          1.7251815179        3.6090619832       -2.9092702797
 H          1.1570811734        2.8953132087       -1.6454094691
 O         -0.2169873948        4.1424720796        0.0630064977
 H         -0.4586052364        5.0312502792        0.4098524805
 H         -0.8901066145        3.9318078743       -0.6024017846
 O          0.4059118835        0.2249287685        2.4619634729
 H          0.1352166363        1.1569910106        2.3792023179
 H          1.3720691152        0.2133749240        2.3211917397
 O          1.0025794119       -3.3125892012        6.1433447356
 H          0.1969012632       -3.7992636558        6.3514840780
 H          0.8301940525       -2.9090994903        5.2631415446
 O         -5.1807089707       -5.7374735062       -1.2413572475
 H         -5.0387284078       -5.4717175760       -2.1636894050
 H         -4.3533563269       -6.1388909974       -0.9297729247
 O         -8.7541693307        1.4278437795        4.9010208841
 H         -9.4421143217        1.6315947481        4.2517703781
 H         -8.6525764196        0.4693666645        4.8758249068
 O         -4.9791120164        0.9462740366        0.7561697823
 H         -4.5697241620        0.0652142804        0.6950988559
 H         -5.0136674466        1.1617651759        1.7021451344
 O          3.0314338232        0.2900645551        2.4088059473
 H          3.7359163349       -0.1217762920        1.8733788660
 H          3.0155906190       -0.2016770303        3.2526974544
 O          3.5144347530        6.1872877664       -1.8799196722
 H          3.9251089456        5.6927012090       -1.1521424405
 H          2.6796853450        6.5240804150       -1.5282477512
 O          2.4308358714        4.5819683891        0.1918748328
 H          1.5193815521        4.4256029742       -0.1007707207
 H          2.6114569619        3.8852644801        0.8449608007
 O          2.6267050688        2.9432752404        2.3358407501
 H          2.8702879074        1.9983211106        2.3893932653
 H          1.7264535262        3.0081956388        2.6657801968
 O          5.7015653439        3.6801940144       -2.6854425410
 H          5.5277834344        4.3295827012       -1.9938642427
 H          6.4231977610        3.1224274743       -2.3679733617
 O          3.9968501474        3.0859798184        4.8765744645
 H          3.5714837856        3.9604567333        4.7965428352
 H          3.2526268841        2.4607906096        4.8664982671
 O          2.0078433743        6.3907116431        2.1037528471
 H          1.0982492255        6.6631721490        1.9536019449
 H          2.2339569140        5.7976205961        1.3478620178
 O          3.9561967447       -6.5977593381        2.7126640691
 H          3.3138748868       -6.1446906296        2.1180636506
 H          3.5245600536       -6.5787197395        3.5713219696
 O          4.2826188140       -3.5200257261        1.6265441772
 H          4.4228043600       -3.5954419025        2.5909437623
 H          4.6271180031       -2.6411669668        1.3568108083
 O          7.3300686092       -0.7997893086        0.3498371121
 H          7.8011259294       -1.4699253953        0.8509626502
 H          7.5270037532        0.0782568704        0.7510187285
 O         -2.1637660356       -4.2182970358       -3.8522555783
 H         -2.0612478646       -4.0180165242       -2.8933706745
 H         -3.0318998756       -4.6243457294       -3.9411772828
 O          5.3928639086        1.9329556201        2.8746542815
 H          4.9741985438        2.5599506813        3.4942709887
 H          5.3358590396        1.0722293527        3.3393165044
 O         -0.5293513771        3.4298013414       -6.6851769205
 H          0.0817983908        4.0417732885       -6.2114269083
 H         -1.4114462928        3.7519068218       -6.4561100107
 O         -4.4798595375        5.4889696382        3.6673109021
 H         -4.6816595007        5.2030523893        4.5585446437
 H         -4.7708859184        4.7597845717        3.0709856161
 O         -4.3485841825       -2.3258095562       -2.1150800525
 H         -3.6531794714       -1.7541636630       -2.5093280163
 H         -5.0979659052       -1.7102139572       -1.9943491104
 O         -3.9909629112        1.4562458241       -1.7597913789
 H         -3.5611560297        2.3347446646       -1.7576980830
 H         -4.4209836451        1.4047430395       -0.8891575442
 O         -3.6058974480       -1.3490931091        0.6117694463
 H         -2.6367274933       -1.3616124304        0.7386718002
 H         -3.8758527233       -2.2340785701        0.3215318350
 O         -7.5171721444       -0.5623277651       -4.4163318797
 H         -6.9902793459       -0.6589216539       -5.2464647327
 H         -7.9941592985        0.2798587563       -4.4404140311
 O          8.1044290226       -3.3604163277       -5.0012546538
 H          7.1920761588       -3.6800443103       -4.9627311176
 H          8.4979210739       -3.6237061702       -4.1570599413
 O         10.0025235123        2.7009157203        1.2847064282
 H          9.8287457537        3.6247763120        1.0904167323
 H          9.1124037952        2.3068415395        1.4348757803
 O         -2.4981670081        0.1534263821        2.8163736507
 H         -2.2243500836        0.5578270198        1.9515938307
 H         -3.3436504603        0.5526215672        3.0733039343
 O         -4.6579201653        6.7153395804        1.0741198361
 H         -5.5024395726        6.5377615296        0.6209445217
 H         -4.8127179209        6.6842902648        2.0234074007
 O         -1.9751383152       -1.8694125449        6.1125183742
 H         -1.5584009466       -1.1871083829        5.5691370362
 H         -1.6278564010       -2.7362534805        5.8321877660
 O         -2.4135152634        2.4856427263        5.6112135753
 H         -3.2583538124        2.2907790394        6.0713435695
 H         -1.9405742291        1.6327842080        5.5409610429
 O         -9.6747034956        0.3245811590        0.6298626796
 H         -9.5884950959       -0.5791287654        1.0016836161
 H         -8.7739447158        0.6025972332        0.3417188196
 O         -3.2705391449       -0.2054409545       -5.6580891235
 H         -3.0140037469       -1.1426990246       -5.8503352051
 H         -2.4549244551        0.3092530786       -5.8776337852
 O          5.8128864539        0.5537518703       -1.4777949803
 H          5.7899961820       -0.2578066007       -2.0212008229
 H          6.6506282816        1.0127037379       -1.6820630513
 O          8.5130100723        1.9208581730       -4.7209791953
 H          8.3698194298        0.9595895948       -4.8536981157
 H          9.4481726170        2.0761788651       -4.8558870340
 O         -0.2055943189       -6.5259090156        0.0795567400
 H          0.1014672702       -6.5949327589       -0.8477321329
 H         -0.2366711266       -5.5729466571        0.2907641725
 O          4.9160510222       -5.6481567787        0.0609123728
 H          4.9626094713       -6.3987571745        0.6555779188
 H          4.6774182199       -4.8796465342        0.6213623206
 O          7.1939735360       -3.4555190738        1.2614237179
 H          6.8763614172       -4.2579901791        1.7309400153
 H          6.6204146280       -3.3574828164        0.4726278655
 O         -2.8147043267        2.9840646674        3.0365544764
 H         -3.7384696794        2.8575233602        2.7721600804
 H         -2.7684824739        2.8395717845        4.0061932020
 O         -4.8181762585       -3.6793560008        0.4036216460
 H         -4.9786092831       -4.3681050712       -0.2781853292
 H         -4.9291061737       -4.1354652360        1.2475192983
 O         -0.2164743319       -3.9329744973        0.8783931571
 H         -0.8273667763       -3.1816083751        0.8384030222
 H          0.6573924267       -3.5159631279        1.0283192851
 O          5.5003862749       -0.4305462129       -5.5255946279
 H          5.2404650959        0.5140515122       -5.4793860254
 H          6.4744352283       -0.4624841375       -5.4951278226
 O         -0.9424405221        0.9587454203       -5.8381719483
 H         -0.8484360935        1.1681712806       -4.8936889547
 H         -0.7833311947        1.8170661839       -6.2914017915
 O         -5.8897614669       -0.8542243786       -6.4642033005
 H         -4.9887973254       -0.5313372826       -6.3218597588
 H         -5.7757895623       -1.8272943739       -6.5029962636
 O         -7.3738065664        1.1081124072       -0.4802608079
 H         -7.0720982993        0.5491191643       -1.2181264706
 H         -6.5958771329        1.1443696327        0.1071548128
 O          0.7846960529       -6.3232868930       -2.3883302548
 H          1.7401736811       -6.4600608877       -2.3021502230
 H          0.6484908736       -5.3533130093       -2.3324151591
 O         -2.2226650536       -3.7758971453       -1.2127745982
 H         -3.0522270891       -3.2804582159       -1.2804737859
 H         -2.4421438956       -4.6308154205       -0.7835467977
 O          2.7073583606       -4.2016116812       -3.9619283856
 H          1.8720490654       -4.4787553142       -4.3888439255
 H          2.9117427234       -4.8583127975       -3.2729454160
 O          4.4905268664       -3.3430297107        4.2735599060
 H          5.3756259255       -2.9578023451        4.3202124707
 H          3.8650322064       -2.6098850807        4.4500489364
 O          6.9927128760       -2.1666834587        3.7060124656
 H          7.7660065157       -1.5851237146        3.7823163546
 H          7.0329930697       -2.5547276882        2.8129788108
 O        -10.0973007154       -3.6093727899       -0.5186679765
 H         -9.7854824227       -3.0409392428       -1.2318896828
 H         -9.3689901328       -4.2282707411       -0.3370203333
 O          7.3000388490        4.1606192300        2.7876175039
 H          7.5526466515        4.1055338694        1.8498673361
 H          6.3654973754        4.4169647631        2.7966144162
 O         -9.5288726972       -2.1472898284        1.6864631829
 H         -8.7071552048       -2.5988069583        1.9384293314
 H         -9.9064916653       -2.6771530800        0.9572798216
 O          6.5325425659       -5.5803845039       -2.2599575926
 H          6.0756911180       -5.0583493276       -2.9490341070
 H          6.0634914311       -5.4284925619       -1.4250822295
 O          6.1511770991        1.8120880797        6.1029388447
 H          5.4301684724        2.4051787191        5.8346340308
 H          6.9457369834        2.1212218859        5.6333647294
 O          0.4208419926       -3.6822737619       -2.0016216340
 H         -0.3418750818       -3.6668113676       -1.4048545880
 H          0.2786018938       -2.9444582191       -2.6309229382
 O         -5.9992832342       -0.2687177365       -2.3082226325
 H         -5.3332128754        0.4357245353       -2.3558123313
 H         -6.4624741045       -0.3147048743       -3.1698372075
 O         -5.9941634117       -0.4427674359        5.4912726907
 H         -5.4405509357       -1.2477817833        5.5195987140
 H         -6.9008790657       -0.7350946773        5.3733628180
 O          5.3832650936       -0.1323911429        4.5394972539
 H          6.0370146075       -0.8155601840        4.3211702013
 H          5.7506011566        0.4635362056        5.2379933540
 O         10.2543259133       -1.1994496493       -0.3131483762
 H          9.5975790385       -1.1633918854       -1.0397118747
 H         10.3017689770       -2.1362907695       -0.0781661429
 O         10.8258362269        0.1079111488        2.0803380466
 H         10.8182344578        1.0493549838        1.8646943219
 H         10.6645694847       -0.3638514643        1.2452127544
 O          8.3342668526        2.5145596827        4.5760361443
 H          9.0150757070        3.0574715632        4.9715565671
 H          7.9170789621        3.0803724615        3.8772333658
 O         -7.7759551049        2.5078565531        2.2080280192
 H         -8.7077759447        2.4768130492        2.4729893743
 H         -7.5157301199        1.5680594962        2.1134799479
 O         -6.7484711568        5.9588777963       -0.4759512110
 H         -7.4366059030        5.2648798072       -0.4087489996
 H         -6.5661640759        6.0674129018       -1.4298830618
 O          1.0396856868        5.0366529726       -5.2701096165
 H          1.8705895141        4.7334194382       -4.8734184095
 H          0.5369806988        5.4376055186       -4.5424039154
 O          0.1408086183       -1.5026969901       -6.1785336192
 H         -0.1542422949       -0.5718913173       -6.2114354670
 H          1.1054476013       -1.4795554029       -6.2575721769
 O          3.5267115937       -6.1853208433       -2.1989106433
 H          4.2431084771       -6.6288617137       -2.6575869718
 H          3.9023333648       -5.9104072577       -1.3342779352
 O         -4.2386673541       -5.1668135692        4.6535031819
 H         -3.7430445594       -5.1675410549        3.8010408321
 H         -5.1006868279       -5.5315828232        4.4517186390
 O          2.6674197196       -1.6390363278       -3.3087338104
 H          2.5920025918       -1.2384151926       -4.1992024970
 H          2.5906760848       -2.6060086855       -3.4673477782
 O         -7.6203949687       -4.6832938571        0.0064633764
 H         -7.4045489268       -3.7298077945        0.0475767683
 H         -7.2404446818       -5.0058384815       -0.8226473115
 O         -7.6176753092       -4.5494398539       -2.8761848608
 H         -7.9644933645       -3.6474855194       -2.6926620383
 H         -8.2981983857       -5.0191014446       -3.3558413869
 O          2.9791158314       -1.1362155252        4.6802997066
 H          3.8276314557       -0.6911269629        4.8775073436
 H          2.3584558274       -0.9274586979        5.3996074767
 O          8.7564940318       -0.0881858098        3.7012527713
 H          8.7518784342        0.6973971709        4.2689014862
 H          9.6249760300       -0.1040833992        3.2329754158
 O          8.0499815938       -0.7047997615       -4.7419525869
 H          8.1894190428       -1.6293577885       -5.0442420078
 H          8.0751327713       -0.7914682213       -3.7664927197
 O         -1.7085381819        5.9269806231        3.4063248784
 H         -2.6636669444        5.8039298317        3.5295380271
 H         -1.2513371682        5.3803176380        4.0560179033
 O         -8.4290584972       -2.0604509215       -2.2969128022
 H         -7.8182792591       -1.8723311421       -1.5539900153
 H         -8.0919254465       -1.5863153444       -3.0778697496
 O          5.4463445427       -3.9752306892       -4.1781765487
 H          4.5135626732       -4.1320111405       -4.3868050515
 H          5.4703344825       -3.0804680839       -3.7868674384
 O         -1.2974788042        2.3112050816       -3.4967942765
 H         -0.3632290715        2.5560362658       -3.3316661405
 H         -1.7605526462        2.6398936207       -2.7141504793
 O          0.3704277031       -2.1861581607        3.7781366450
 H          0.9864411351       -2.4308623331        3.0627525159
 H          0.3147241219       -1.2220515441        3.7054936456
 O         -0.6722703184        6.5931825104        1.0055913294
 H         -1.0879707932        6.3995443560        1.8707942174
 H         -1.4051275617        6.8968181513        0.4258852924
 O          9.6333013413       -3.8627009024        0.3046893322
 H          8.7300659132       -3.7387751508        0.6888681586
 H         10.0366464211       -4.5885074777        0.7786759710
 O         -4.3518629139       -2.4961270726        5.1784949570
 H         -4.3274974657       -3.4676311662        5.1113775384
 H         -3.4872770133       -2.2211345990        5.5700314306
 O         -6.0503600649       -5.5846748101        2.0222369089
 H         -5.6012800173       -6.3977446113        1.7894308105
 H         -6.6734698737       -5.3984171491        1.2840263880
 O          4.7626130323       -1.0197082142        0.8797385072
 H          5.6904108333       -0.9026859242        0.5845960452
 H          4.1933280855       -0.9412023769        0.0947865086
 O         -2.7583925479       -5.0497483949        2.4477896420
 H         -1.9053519460       -5.4272163522        2.7071337329
 H         -2.6151798682       -4.0758745799        2.5115139355
 O          6.4688764225        3.8027613176       -5.3015281017
 H          7.2384720616        3.2196516183       -5.2442562314
 H          6.2532175511        4.0387709440       -4.3828110911
 O         -0.2456884891        5.7601972732       -2.9071874962
 H          0.0839214120        4.8793017819       -2.6284731807
 H          0.1981883942        6.3937721369       -2.3203853800
 O         -6.9472851078       -1.9971828601       -0.0118738412
 H         -7.0992121991       -1.3154175490        0.6670197709
 H         -6.0461128177       -2.3383387509        0.1175827713
 O         -6.2704984368        2.8622661185       -2.8440715403
 H         -5.7141169014        2.4984398770       -3.5484735492
 H         -7.1661610348        2.5145282349       -2.9986584934
 O          3.1045428372        4.2388965555       -3.6097482320
 H          3.2320185990        5.0461707316       -3.0536787708
 H          3.9394415680        3.7624035202       -3.5249259696
 O         -5.0248036754       -4.3640191801       -3.6476979753
 H         -5.9859188491       -4.4616405554       -3.5250388879
 H         -4.7828545232       -3.5665950045       -3.1141452111
 O          6.3438969503       -5.4097593215        2.8676434479
 H          6.3737552187       -5.0599315768        3.7589361504
 H          5.4771502211       -5.8716451642        2.7902509051
 O         -5.0349929661       -3.3899864919       -6.2447478599
 H         -5.0646189279       -3.7937733778       -5.3595426977
 H         -4.0974509733       -3.2605153967       -6.4382192431
 O          2.8654257094       -3.6918109604       -0.9238133362
 H          2.8757387993       -2.7740402700       -0.6313078452
 H          2.0189245893       -3.7688244278       -1.4054314323
 O         -4.9658560548        1.8437383727       -5.0573235900
 H         -4.3563300586        1.0941008825       -5.1705248412
 H         -5.6065093968        1.7745901356       -5.7668796894
 O         -1.4230423903       -4.4450199438        5.4654200538
 H         -2.2918228482       -4.8543471729        5.4487459892
 H         -0.9587102928       -4.7256928202        4.6468460780
 O         10.3387423847        1.5237025607       -1.1245907632
 H         10.3458188377        1.9947696195       -0.2669330959
 H         10.5290181181        0.5995404398       -0.9269257626
 O          5.2076048958        4.7079938904       -0.1389084514
 H          4.9015704730        3.7747770832       -0.0565901435
 H          5.0060184058        5.0743096023        0.7393278392
 O         -0.2589352897        2.8463660085        2.3758678888
 H         -0.1695760737        3.3089653836        1.5098933056
 H         -1.2239491660        2.7838901704        2.5206818432
 O          7.7212408801        1.3793236614        1.7291539460
 H          6.9180904209        1.8131133326        2.0795163078
 H          8.0557285487        0.8406295809        2.4794920757
 O          7.9407748967        2.0624516269       -2.0596448978
 H          8.0958138855        2.0591781146       -3.0234678781
 H          8.8186088964        1.7993661834       -1.6852183332
 O         -6.5830475951        3.0276345346        4.7558307273
 H         -7.3466316355        2.4214713519        4.8790956850
 H         -6.9168303749        3.7463271709        4.2162599417
 O          8.5927139573       -3.8998163449       -2.2779351904
 H          7.8668257956       -4.5679000312       -2.2374000851
 H          9.1094276502       -4.0131792999       -1.4675346786
 O          0.3125300967       -5.1300988582       -4.8404439022
 H          0.3730399318       -5.9187382684       -4.2848443092
 H         -0.5267450051       -4.7168501266       -4.5888248882
 O          8.2113722510       -1.2727105012       -2.1224785601
 H          7.6873011733       -1.0916851550       -1.3198214501
 H          8.2633351471       -2.2498331203       -2.2158803520
 O          7.8101617900        4.0611859866        0.0754663797
 H          6.9158664853        4.4290506148       -0.0725426770
 H          7.9171983151        3.3597418494       -0.5789895229
 O          5.6582935794       -3.1102419712       -0.9519111143
 H          5.7415431844       -2.5244202006       -1.7130971857
 H          4.7642797095       -3.4750499084       -0.9792597609
 O        -10.1260322434        0.1761184390       -2.0430093103
 H        -10.1289603424        0.3279501539       -1.0784733973
 H         -9.7242337445       -0.6967714856       -2.1633363157
 O         -8.6853855288        1.7882597015       -3.5378099390
 H         -9.2140356942        1.2244942337       -2.9106193603
 H         -9.2790523640        2.4837423868       -3.8194113532
 O         -8.2401657458        3.7173691353       -0.2382112278
 H         -7.9746609069        2.9216206290       -0.7226574314
 H         -8.1306928225        3.4505207502        0.6884837086
 O         -7.2340002941       -0.1735165241        2.1195830051
 H         -7.8629393005       -0.4897754823        2.7849103885
 H         -6.3606719911       -0.4746067092        2.4329436181
 O         -7.2303779668       -3.2067082991        2.9134275475
 H         -6.9642350044       -4.1280002816        2.8507488829
 H         -6.4069483590       -2.6774050300        2.7976764300
 O         -0.1055403650       -5.2518181579        3.2713626414
 H         -0.0173876599       -4.7715742489        2.4261302512
 H          0.7996120153       -5.3630799287        3.6074343276
 O         -8.5954126901       -1.3408913754        4.2672670546
 H         -8.0957071995       -2.1347680898        3.9884403789
 H         -9.4682877865       -1.4614676073        3.8805557962
 O          2.1775060943       -5.4295122742        1.1324111631
 H          1.5094579745       -6.0550462709        0.8242590766
 H          2.4783467118       -4.9002573335        0.3730182462
 O          1.5571226100        1.7267934634        5.0433214546
 H          1.6193196275        1.2383044236        5.8701758593
 H          1.0624704369        2.5480960395        5.2121217452
 O         -2.8078595287        4.7104678030        0.8971209975
 H         -3.4752375976        5.4116246401        0.9649275683
 H         -2.7775524979        4.2617942239        1.7513294538
 O         -2.8923195970        5.6210909457       -3.2069536403
 H         -2.9697375681        5.0839081117       -4.0239769536
 H         -1.9375836139        5.8488897878       -3.1675141197
 O         -5.1018101419        3.7949015824       -0.5312122998
 H         -5.5530229405        4.6564715166       -0.5034642770
 H         -5.5571517844        3.2965439538       -1.2266178260
 O          1.1574849909       -0.6402120546        6.6814843557
 H          0.2437726969       -0.4264366177        6.4599107958
 H          1.1609128069       -1.6043095930        6.8219990525
 O         -2.8659319225        3.7315439816       -5.1258548000
 H         -3.6788541807        3.2099742691       -5.1647833283
 H         -2.2387357181        3.1956321845       -4.5863715438
 O          2.7665236470       -0.7850475529       -5.8653774736
 H          3.7233435607       -0.8648433738       -5.9761020357
 H          2.5502711145        0.1483579658       -6.0400429487
 O          2.3505720984       -5.1572818833        4.6024017505
 H          3.1297305432       -4.6324470675        4.3787512443
 H          1.9262962572       -4.6555108478        5.3197852558
 O         -4.8258406704        1.8891610474        6.5874599596
 H         -5.1379806788        0.9877483607        6.4246898151
 H         -5.4598151167        2.4559900391        6.1286514303
 O         -0.1793784445        3.8946974023        4.8649871010
 H         -0.1916808447        3.5743764703        3.9386324109
 H         -0.9690178715        3.5205652940        5.2887689868
 O          2.3300085464        5.1987757568        4.5125060189
 H          2.1889556244        5.6746976697        3.6691275892
 H          1.4555398969        4.9270815332        4.8090562218
 O         -5.8194632869        5.6103895909       -2.9848673367
 H         -5.9836709351        4.6511445433       -3.0086334767
 H         -4.8668069380        5.7299228437       -3.0702598440
 O         -4.9898221352        1.1343593192        3.5308244339
 H         -5.2748715606        0.4402957284        4.1550315926
 H         -5.4518059623        1.9284902478        3.8501142248
 O         -0.9038944534        0.3727273145        4.8875068946
 H         -1.4376243824        0.2961184739        4.0577080254
 H         -0.0513332398        0.7592729086        4.6279102338
 O        -10.3728134508        1.8407137975        2.6550031601
 H        -11.1712956575        2.3174765554        2.4339161962
 H        -10.1852696364        1.2364599065        1.8850418140
 O          1.9405362630        1.8293237092       -6.0438213785
 H          1.5149765409        1.6157000090       -5.1834452425
 H          1.3253684916        2.3860919702       -6.5270449627
 O         -2.5044596372        3.6673201027       -1.4721298653
 H         -2.8454616975        3.9820343363       -0.6014084095
 H         -2.7147133351        4.4027686537       -2.0911043047
 O         -0.9181027816       -1.3316488534        0.5587267820
 H         -0.6919500396       -0.8606128254       -0.2540148919
 H         -0.4800639287       -0.8432715464        1.2806154855
 O         -0.2292098869        0.7258164435       -1.1331303562
 H          0.5109210714        1.1175197814       -0.6510501858
 H         -0.1129298776        0.9658735652       -2.0609943928
 O         -2.1154682844        1.4663352564        0.6206548021
 H         -3.0153657616        1.5853520130        0.3132110484
 H         -1.5647576720        1.1961739074       -0.1291299020
