  252
       -422.41705976
 H          0.0495506719       -1.5587018554       -1.0527347393
 C          0.0864126990       -0.5266678139       -1.3930896589
 H          0.7028357854       -0.4767353889       -2.2930868589
 C          0.6966133922        0.3519718119       -0.3041655283
 H          0.0911819994        0.2985436912        0.5980546161
 H          0.7478014084        1.3865662303       -0.6360023735
 O         -1.2412967464       -0.1587630338       -1.7088418590
 H         -1.2492839160        0.8177348097       -1.8850490519
 N          2.0473857783       -0.1312377814       -0.0153889050
 H          1.9835367058       -1.1159731734        0.3235907587
 H          2.5239246681        0.4622620171        0.6878877943
 H          2.6382077045       -0.1081895232       -0.8914143669
 O         -0.9958420401        2.3732863541       -2.3147534995
 H         -0.5739737291        2.8230173512       -1.5493658968
 H         -1.6474574062        3.0134791946       -2.6419618062
 O          1.6325429135        0.9713087404        2.7502807086
 H          2.0625468712        0.1057456865        2.6463764348
 H          2.1607786977        1.3947993306        3.4364940381
 O         -0.1873485356       -1.2073092758        3.2377131596
 H         -0.7022711447       -1.9121244929        3.6860035087
 H         -0.8344730508       -0.7412064066        2.6733424080
 O         -1.4137296025       -3.0380124350        0.7787294257
 H         -1.4070603498       -3.2090528321       -0.1742248841
 H         -1.7409556981       -2.1267560414        0.9131773707
 O         -3.8366638414        0.9865286955       -1.7784338355
 H         -3.2293294422        1.2665734789       -1.0749822728
 H         -3.5208885048        1.4088957127       -2.5978403284
 O          8.6762794211       -0.2937210436       -1.3498813357
 H          8.8082423358       -0.3758125870       -2.2964020334
 H          7.7596152554        0.0377052927       -1.2455105177
 O         -3.4113761108       -3.7104816499        2.6426915735
 H         -2.8912566575       -3.6383130400        1.8281655173
 H         -4.2444239340       -3.2274004756        2.5039768585
 O         -0.0386091256       -4.5696490620        2.8748762408
 H          0.2755676803       -5.3585300344        2.4054573711
 H         -0.5947001648       -4.1161245066        2.2266119040
 O         -1.0446545397        2.7186189277       -5.5968215775
 H         -0.6220998114        3.4863295581       -5.1731260807
 H         -1.8694083876        2.5848318240       -5.1066317149
 O         -2.3075707294       -0.8092430702        5.7883575913
 H         -2.8895423889       -0.9989252485        6.5246841372
 H         -2.0204991274       -1.6711073271        5.4297284109
 O         -1.8863857781       -0.8405114662       -4.2721164288
 H         -1.7037283616       -0.5754571145       -3.3477003319
 H         -2.7417138565       -0.4445781654       -4.5195754596
 O          1.2701616921        1.4703008792       -3.4573526986
 H          0.9805043496        1.0930307814       -4.3157808266
 H          0.4719684070        1.9132779100       -3.1101102400
 O          1.4492739490       -0.5365020151        5.2606418872
 H          1.4140294874       -1.3215339763        5.8059648362
 H          0.9390612236       -0.7317432623        4.4429919372
 O         -3.5490556383       -4.5264328168       -0.4829454780
 H         -3.4354206182       -3.5740562574       -0.6601537036
 H         -4.4020157989       -4.6185320400       -0.0311231687
 O          3.4434594730        1.3071413674        4.8370103530
 H          2.8175104750        0.6468781310        5.1779458626
 H          4.2720633962        0.8364435823        4.6938842152
 O          1.8202768550        5.0260609905       -2.0952188188
 H          2.3875786183        5.4539961366       -1.4217353371
 H          2.4164595776        4.5087524931       -2.6669653966
 O         -0.5139507972        2.4175211944        2.1637806860
 H         -0.2482485321        3.3548112174        2.2122232461
 H          0.2526459769        1.8748853681        2.4293657062
 O         -2.3161994044        1.8793618410        0.2864965424
 H         -1.4882766842        2.1172293730        0.7428728126
 H         -2.9689729217        2.5000817831        0.6681987154
 O         -2.1568889773       -0.5129393643        1.5299503629
 H         -2.8286311971       -0.3755869335        2.2276899433
 H         -2.2350892116        0.2758883863        0.9581593419
 O          1.1256999080       -2.3390638282        1.2408830805
 H          0.3614102808       -2.8050062794        0.8657207715
 H          0.7608731713       -1.8781070706        2.0292307032
 O         -5.0805537611        4.2060328701       -3.0057156143
 H         -5.7490664473        4.8170812707       -3.3132376023
 H         -5.5121123773        3.6055831851       -2.3529240937
 O          5.8884109774       -3.5313007734       -1.1241074390
 H          6.7654130583       -3.2419252874       -0.8323400245
 H          5.4552436622       -3.8894361057       -0.3303377105
 O         -6.0216154177        2.3635235618       -1.3328369935
 H         -5.2021039605        1.8214521950       -1.5074338213
 H         -6.0395844629        2.4560816376       -0.3619497103
 O         -4.4396732003       -0.1322165549       -4.9468469838
 H         -4.7821501012       -0.6476596679       -4.1809406360
 H         -4.7834747060       -0.5462382094       -5.7380934956
 O          7.6807884917        2.3043862325        0.3673186094
 H          7.1432659341        1.7499037607       -0.2322897724
 H          8.5820928970        1.9910371880        0.2768826594
 O          3.7398307070        1.6301728937        1.1362655503
 H          4.5505393962        1.6204675555        1.6779370080
 H          3.9893030892        1.9849812507        0.2545010590
 O         -0.5147920559        1.4375872343        5.3801187005
 H         -1.2301174672        0.8203749527        5.5735535069
 H          0.2887602555        0.8982532454        5.4023368182
 O         -5.2543412553       -1.5403872519       -2.8412746426
 H         -5.7159488380       -2.3947055872       -2.7183968780
 H         -5.7836185792       -0.9015212027       -2.3206241784
 O         -4.3677711507       -4.9840761684       -3.0415429309
 H         -3.7499868127       -4.4288168306       -3.5370522874
 H         -3.9774718062       -5.0497957692       -2.1492223794
 O          5.0287671770       -4.3615115021        1.3850450834
 H          4.2264715385       -4.2038342536        1.9125239518
 H          5.6910023917       -3.7545116228        1.7564902663
 O          4.4962110445        2.7567965501       -1.1202554757
 H          4.9845216157        3.4870174074       -0.6939802800
 H          5.1354330933        2.0348552252       -1.2927318075
 O          2.9263437772       -2.6169346316       -0.8255835779
 H          2.5645869490       -2.5956868572       -1.7229572964
 H          2.9212302182       -3.5621918966       -0.5771492358
 O         -0.2493689394        4.8173492011       -4.0292149142
 H          0.4927997524        5.0464443278       -3.4569654617
 H         -1.0474029965        4.9585000214       -3.5011073358
 O          6.6303321313       -2.1724965400        1.9613444924
 H          7.4333301387       -2.3746150959        1.4633154749
 H          6.0297326365       -1.7661102562        1.2978513194
 O          2.9041665667        3.8997165894        4.1251745247
 H          3.1231310294        3.0089463686        4.4492033147
 H          2.5224348863        3.8005276697        3.2288514839
 O         -8.6773259456       -2.2116932427       -1.5175062209
 H         -9.5042529701       -2.6306894408       -1.7565123689
 H         -7.9643141012       -2.8045050854       -1.8213102441
 O         -3.8375628504        3.6777078729        1.5953569066
 H         -4.6973930163        3.2235633393        1.5669552246
 H         -3.4708722459        3.4890074282        2.4784476839
 O          4.3018980011        1.2585552969       -5.0671156443
 H          3.9826444619        2.0201376383       -4.5165758721
 H          4.4629349979        1.6088702252       -5.9429232986
 O         -2.5830018331        2.6949745223        3.7747275797
 H         -2.2608121978        3.0296345479        4.6132671662
 H         -1.7717089861        2.5068560884        3.2365864541
 O         -1.1233243305       -5.9032976053       -0.6435472765
 H         -0.8022364818       -5.1532331239       -1.1758957767
 H         -2.0209273417       -5.6467741719       -0.3887947729
 O         -7.9846401175        0.6726193502        2.4772356213
 H         -8.8271155478        0.9338165547        2.8480435241
 H         -8.1536947474       -0.1478198002        1.9533746351
 O         -6.1554162130       -0.6949767751        4.0948508251
 H         -5.2906484049       -0.2612875887        3.9669295947
 H         -6.8128692681       -0.1206200844        3.6713223263
 O          6.2088498541       -0.0963070950       -3.6351009169
 H          5.6138680549        0.4439822713       -4.1847707922
 H          5.7452203008       -0.9509673829       -3.5291553894
 O          1.6878467622       -2.7965681866       -3.2993970051
 H          2.0465935692       -3.6128368956       -3.6492336875
 H          1.9854222096       -2.0845769789       -3.9094431202
 O         -3.6322977176        0.2247472313        3.6470832240
 H         -3.3796644017        1.1696879298        3.6800850743
 H         -3.1780711485       -0.1810663853        4.4085957001
 O          3.3854815810       -1.0709970358        2.5764777226
 H          3.2192145742       -2.0075555519        2.7639826388
 H          4.1457752034       -0.8105992977        3.1407391906
 O         -5.7723117975       -2.3929647937        2.1493429876
 H         -5.4065355234       -1.6778291014        1.5650224509
 H         -5.9663397661       -1.9220473671        3.0007526223
 O          0.1792593660        0.3834589097       -5.6289267821
 H         -0.2331981377        1.2593432060       -5.8186784377
 H         -0.5406720597       -0.1479078867       -5.2468730287
 O          6.0528112682        1.9106051627        2.5026226210
 H          6.7390576917        2.0293835505        1.8206377583
 H          5.8857085451        2.7882128597        2.8871498599
 O          6.1536848175        0.6694425295       -1.1672604448
 H          6.0961308716        0.4055790410       -2.1303228274
 H          5.6110502881        0.0171244321       -0.6651574109
 O          3.3016311054        5.7085572080        0.0475813820
 H          4.2538398227        5.5826661614        0.0103499844
 H          2.9606443018        5.0290325297        0.6606670025
 O          3.2982466868        3.1507658484       -3.4943200311
 H          3.7410045993        2.9746106422       -2.6402296166
 H          2.4742599722        2.6108919332       -3.4863166329
 O          2.8842501767       -5.2446567803       -0.2953008508
 H          2.1672458742       -5.6398700559        0.2295758435
 H          3.6928410884       -5.3365377988        0.2195037430
 O         -1.6392679806       -3.0842546795        4.4866785219
 H         -2.3974332264       -3.2908872594        3.8846570127
 H         -1.0163454560       -3.8060075080        4.3177875229
 O          2.7338272362       -3.7535245574        2.7389999900
 H          2.1330070216       -4.2896383566        3.2624470880
 H          2.1661744296       -3.3864488220        2.0190092499
 O          3.4195652359        0.1088868759       -2.2804286736
 H          3.7124857728       -0.7265202021       -2.6710228564
 H          2.7485955518        0.4991027765       -2.8606493943
 O          8.3779908372       -2.6586776005       -0.1319648962
 H          8.5635385123       -1.7892043601       -0.5531402837
 H          9.1647181486       -3.1941127014       -0.2323555876
 O         -0.1134595950        5.0918512670        2.5740701173
 H         -0.1017101208        4.8631095980        3.5310559030
 H          0.7595652769        5.4325325255        2.3669436567
 O         -2.2729211224       -3.4419194322       -4.1074456537
 H         -2.1591641273       -2.4647815679       -4.2166636646
 H         -1.8948626852       -3.8530135375       -4.8846882595
 O         -0.6564556591       -3.5497233009       -1.9169398141
 H          0.1825565687       -3.3202125373       -2.3432166205
 H         -1.3208053188       -3.5623972940       -2.6306271576
 O         -5.8505766807        1.9392902094        1.3406771799
 H         -6.6625459288        1.6595501994        1.7918639044
 H         -5.3479631246        1.1144552283        1.1969371343
 O          5.3345030631        4.4517495745        3.1900168284
 H          4.4218012867        4.3415053013        3.5595229433
 H          5.7642587863        5.1191020398        3.7248042554
 O         -8.2977934535       -1.6400651919        1.2138975733
 H         -8.4242781705       -1.8444172931        0.2750978587
 H         -7.4737746723       -2.0713882934        1.4952752425
 O          0.2965842954        3.6816717100       -0.4092861648
 H          0.8368241630        4.2109461790       -1.0483966264
 H         -0.4435379626        4.2557802712       -0.1286199151
 O          2.1707239431        3.7094501310        1.5426440032
 H          1.4337810275        3.6250221164        0.9029644923
 H          2.7076822678        2.8931265401        1.4305400619
 O          2.5299253888       -0.9300931443       -5.0197561455
 H          1.7403421860       -0.5445404169       -5.4294910524
 H          3.2025822447       -0.2294105190       -5.0340282238
 O          5.6227345436       -0.3986447828        3.8436503358
 H          6.1317429317       -1.1089063949        3.4178030077
 H          5.9143858241        0.4200370159        3.4041550283
 O         -6.5297086123       -3.7999185173       -2.0971175324
 H         -6.4124846440       -4.0525610472       -1.1666511545
 H         -5.8729401027       -4.3537850554       -2.5835557943
 O         -3.3969789036        2.2814646875       -4.1130464356
 H         -3.9002803494        1.6183979999       -4.6058079893
 H         -3.9868033314        3.0300625289       -3.9315175674
 O          4.7020380039       -2.2642947160       -3.1081864569
 H          5.0886872586       -2.7216610473       -2.3203605439
 H          4.6770948937       -2.9110001784       -3.8121652240
 O          5.8718629762        4.4722545120        0.4526196663
 H          6.7143175041        4.0024368246        0.4046329914
 H          5.6405537288        4.5191788840        1.3964848179
 O         -1.8419183475        5.1455133708        0.4282846975
 H         -1.3510567442        5.4437895824        1.2075532948
 H         -2.6279545915        4.6999684759        0.7853954750
 O          0.2242238759        4.0728452155        5.0014310847
 H          1.1927567516        4.0916886909        4.9890694137
 H         -0.0298189026        3.1522390037        5.1789784153
 O         -2.4322940330        4.6823103837       -2.2918462283
 H         -2.3087669319        5.0165620913       -1.3938204823
 H         -3.3811341030        4.6747740904       -2.4775441402
 O         -4.9451314012       -0.4988544846        0.5627424304
 H         -4.2047170816       -0.8906476771        0.0486330790
 H         -5.6771565040       -0.4125275088       -0.0745947177
 O         -6.8946321945       -0.1418344609       -1.2767334514
 H         -7.7751076152       -0.5153095286       -1.3911233722
 H         -6.9088463406        0.8269707048       -1.3994251645
 O         -6.0939893225       -4.5132666297        0.5672701619
 H         -6.0234540233       -3.7848061424        1.2179290684
 H         -6.4470861676       -5.2708788946        1.0333366582
 O          0.7859754982       -6.4402807536        1.0732885261
 H          0.0506893403       -6.2566067281        0.4302791758
 H          0.8763628590       -7.3924953870        1.1059761635
 O          4.8103065418       -1.1054820526        0.2888485233
 H          4.2901956918       -1.7477859888       -0.2393583856
 H          4.2584383786       -0.9385950325        1.0801396774
 O         -3.2949172655       -1.8420567176       -1.0463140620
 H         -3.9171178039       -1.7253238736       -1.7956808392
 H         -2.5455806174       -1.2541202347       -1.2367015582
