  252
       -422.41584187
 H         -2.2420871070       -1.5273784941        0.2878689723
 C         -1.3863477183       -1.2971198182       -0.3476995823
 H         -0.6753635314       -2.1211214870       -0.2883409724
 C         -0.7295079594       -0.0041784796        0.1213107557
 H         -0.3622618265       -0.1418347243        1.1338549759
 H         -1.4531021844        0.8092956132        0.0999287524
 O         -1.7816610841       -1.2061132555       -1.6999520780
 H         -2.5660647054       -0.6315901918       -1.7492301038
 N          0.3882267817        0.3490801479       -0.7685204876
 H          0.9690241468        1.0912718893       -0.3219053026
 H          0.0127753820        0.7163356029       -1.6805282078
 H          0.9557715199       -0.4917569809       -0.9989335574
 O          4.5682395613       -0.9886799933        2.4040568670
 H          5.4227813653       -0.6353096711        2.0867184190
 H          4.6315216517       -1.9578090764        2.2862731311
 O          2.3833916467       -0.7744379956       -5.0421819607
 H          2.6718432588       -0.3716866133       -4.2004787953
 H          2.7584714098       -1.6656702035       -5.0469570751
 O          0.9904225755        1.3971296130       -6.0979500483
 H          1.3616510064        2.0929382229       -5.5451289471
 H          1.5155280569        0.6024603833       -5.9302202697
 O         -1.3540140646       -0.9755146957        4.8940742071
 H         -1.3836787930       -0.0251488111        5.1393849832
 H         -0.7217073684       -1.3781117023        5.5019559373
 O         -0.8901018365       -5.4571183619        0.8367839788
 H         -1.4717141803       -5.8046388358        0.1214197107
 H         -1.4652835081       -4.8190198536        1.3086682614
 O         -0.5556628032       -2.0454351056        2.5866179075
 H         -0.7835508919       -1.4269142808        3.3120460083
 H         -1.4059861004       -2.2647810764        2.1739370875
 O         -2.9931714203       -3.1677048891        4.5186451272
 H         -3.8917643187       -2.8708154002        4.6998896094
 H         -2.4622756593       -2.3590482332        4.6516059247
 O          2.9931371831       -2.5898225724        4.4790163404
 H          2.2153050377       -2.5731706129        5.0491876005
 H          2.6778213290       -2.4670725431        3.5623663960
 O          1.3447781959       -5.2725131134        2.4135294072
 H          0.6659894664       -5.5639920907        1.7839036579
 H          0.8365715606       -5.0486870244        3.2102935216
 O          3.9217547346        2.3207040167        0.8896433468
 H          3.2650862559        1.6348172530        1.1527864084
 H          4.6214304374        2.3276484723        1.5676505127
 O         -0.5108367052        1.1102332066       -3.1717828747
 H         -0.3433179665        0.2375380966       -3.5913652972
 H         -1.4834589522        1.2217427412       -3.1855901525
 O          1.7956378859        3.1985582904        2.7928678399
 H          2.6313827558        3.1351263651        3.3100831027
 H          1.4519637363        4.0942954777        2.8763301122
 O          3.8749268275       -5.0347043018        3.7351175126
 H          3.0627878104       -5.3586586211        3.3259592469
 H          3.6262086069       -4.2153922481        4.2088219692
 O         -3.6995570162        3.7774800133        2.7180381172
 H         -4.2946655697        4.3083099458        3.2461252253
 H         -3.7129550590        4.1351563929        1.7987833053
 O          0.6610706703        3.3290217269       -3.9544161596
 H          0.2041013588        2.4626380606       -3.8716378274
 H          0.1440304930        3.8597394501       -4.5903226208
 O         -4.4511574635       -0.3754569997       -1.2289388128
 H         -4.5295726897       -1.0374360753       -1.9405797577
 H         -4.7760554814       -0.8082044185       -0.4136609308
 O         -2.0865014935        6.3401798771       -0.5796360872
 H         -2.2319557156        6.2993778837       -1.5338771958
 H         -1.1307058938        6.3487846528       -0.4475589270
 O         -4.9497041072        1.6128408690        1.5186545541
 H         -4.3876778942        2.1367069148        2.1164531978
 H         -5.5376802450        2.2467305739        1.0847229564
 O         -3.1342641081        2.0573417873       -0.6494597423
 H         -3.7110811518        1.5570997141       -0.0554240926
 H         -3.2044782792        1.6477614183       -1.5264543086
 O         -3.2534088951        3.4222782187       -4.8699565505
 H         -4.1648093742        3.1117809456       -4.7933902913
 H         -2.7365363844        2.6332317995       -5.1392272749
 O         -0.9154397860        4.6578957980       -5.7287767441
 H         -0.6219115675        4.4335350318       -6.6129386634
 H         -1.8011689073        4.2716742588       -5.6313086508
 O          4.8495204724        0.3905516096       -0.6368629951
 H          4.5313752429        1.1947375081       -0.1683770361
 H          5.8080990425        0.5087393544       -0.7570076948
 O          4.0709558301        0.0764699124        4.7979793197
 H          4.5582108469       -0.4456399594        5.4355895446
 H          4.2152946672       -0.3679479943        3.9282998597
 O         -4.8050358563       -4.8769954118        0.2945221882
 H         -5.4029016541       -4.3605409337       -0.2671803627
 H         -5.3321915388       -5.5672322859        0.6985197819
 O          5.2301334881        3.4514363214       -1.9437005961
 H          5.7134758693        2.8266093277       -2.5076439606
 H          4.2939731356        3.1812593122       -1.9861706643
 O          2.0156898347       -2.6642022683        1.9186902688
 H          1.1281261795       -2.2824736529        2.0034654189
 H          1.8879056325       -3.6320181855        1.9485096109
 O          3.0879924478        0.2469841916       -2.6240044552
 H          2.8215377072        1.1851114459       -2.5963239800
 H          3.7206457782        0.1858103967       -1.8785166333
 O          6.8621421280        3.5877929144        0.1295268177
 H          6.1571123998        3.5816649269       -0.5666155063
 H          7.3067231957        4.4318666429        0.0584749955
 O         -0.3583405004       -4.1034441908        4.2296015985
 H         -0.3986460947       -3.3797271158        3.5476949746
 H         -1.2809245017       -4.2799137612        4.4461152485
 O         -1.2733961455        3.3376088629        0.9566026708
 H         -1.0923924567        4.1838113425        1.3826644830
 H         -1.4418339108        3.4930014008        0.0143096320
 O         -3.2108224987       -1.0874064305        2.3186439109
 H         -2.8790719504       -0.1703810926        2.2918674529
 H         -3.6899016280       -1.1524209821        3.1714629220
 O          0.7506623075        5.6235397459       -0.2090214190
 H          1.7070649410        5.4134020435       -0.1759344446
 H          0.3363191668        4.9082551319       -0.7372470825
 O          7.4793381082        1.0868659219       -0.7845864249
 H          7.4340043465        1.1912865185       -1.7523667998
 H          7.4429880552        1.9909115176       -0.4265815165
 O         -6.3645094416        3.5297835452        0.0853393558
 H         -7.0716834681        4.1669843989       -0.0118229113
 H         -5.5185821049        4.0253655780        0.0102161150
 O          7.0371952736       -0.2877899131        1.5535041660
 H          7.2804448196        0.1455160439        0.7197540632
 H          7.2946192308       -1.2165161511        1.4224750655
 O          3.6436271329       -1.9320915633       -0.1931586076
 H          4.0130299212       -1.0322689414       -0.1031693264
 H          3.1591682664       -2.1421399184        0.6267840462
 O         -2.1250407545        1.3354392876        2.6015441050
 H         -1.2198852366        1.1445444979        2.9199566110
 H         -2.0149235800        2.0810601884        1.9902025556
 O          0.4219034152       -4.7228270911       -3.5000881280
 H          1.2176738200       -4.1806528673       -3.7532308936
 H          0.4791941480       -5.5398228153       -3.9939627283
 O         -4.7891196270       -1.0536690603        4.4978768556
 H         -5.6038741038       -0.8439962353        4.0176314198
 H         -4.4373877122       -0.1807691490        4.7801795787
 O          0.0241956123       -1.3692401383       -3.9802917043
 H          0.3744264494       -1.6653823448       -3.1284322038
 H          0.8117779454       -1.2247510063       -4.5472471305
 O         -6.6583528763       -0.0290888197        2.7267336704
 H         -7.4239489566        0.4765676278        2.9961985377
 H         -6.0017224042        0.6070079599        2.3503665657
 O          2.5827382798        2.8194123228       -2.1171539878
 H          1.9986824150        3.1965745140       -2.7906587798
 H          2.1267317644        2.8823803630       -1.2550325763
 O          3.2233896803       -4.9306125271        0.0379903496
 H          2.3316949182       -4.6415903027       -0.2559383041
 H          3.0884869968       -5.7219968851        0.5616036567
 O          0.7581970759       -4.3033152851       -0.8296770685
 H          0.1120770471       -4.7102087671       -0.2009725257
 H          0.5698061266       -4.6659681893       -1.7141324566
 O          4.9269430401       -3.6165679807        1.7745637657
 H          4.7008892794       -4.1962595780        2.5393192916
 H          4.3693855117       -3.9364518059        1.0428304885
 O          4.3973459185       -4.6525604618       -2.4937375047
 H          4.0317545540       -4.8542256954       -1.6181954942
 H          5.1181186748       -4.0221323162       -2.3308956249
 O          5.9219427117       -2.5680746828       -1.5467687501
 H          5.1089250630       -2.3889568925       -1.0391209034
 H          6.6218233315       -2.6465396120       -0.8837634820
 O         -3.8877817048        4.4779579784        0.1545262692
 H         -3.2898577749        5.2073163406       -0.1022772284
 H         -3.5242168028        3.6512849898       -0.2413588743
 O          0.6652819208       -2.5717748009        6.0984350830
 H          0.7030386649       -2.9973520946        6.9548035482
 H          0.2896794615       -3.2354443991        5.4594244568
 O         -1.0399125450        1.5350932925        5.7446258052
 H         -0.1179537965        1.4170699547        5.9958355584
 H         -1.0698081254        2.3314218975        5.1774128361
 O         -1.2713612731        3.6813991852        4.1257375390
 H         -0.7012564682        4.2302362059        3.5767712025
 H         -2.1287153119        3.6393243087        3.6729011828
 O          6.7261295064        1.5296421797       -3.3408383629
 H          6.2807682395        0.6476423485       -3.4801635505
 H          7.2392537067        1.6969872180       -4.1305472755
 O         -1.7323210533        1.4251555928       -5.8029136638
 H         -0.7786955376        1.3838848453       -5.9972146311
 H         -2.0487672078        0.5171187497       -5.7519612531
 O          2.3725815079        0.2279204002        1.3800755699
 H          1.6800408853        0.3773512876        2.0481880131
 H          3.0797392720       -0.2804703857        1.8130126686
 O         -4.5170019105       -2.4747013642       -3.0038999929
 H         -5.1908743266       -2.8860569869       -2.4284263424
 H         -3.7314843240       -3.0419648881       -2.9663842378
 O         -3.1566593138        0.9346357919       -3.1756816676
 H         -3.9516501141        1.3810927180       -3.5360361927
 H         -3.0347108779        0.1515625916       -3.7488169594
 O          0.0871220322        5.4302702626        2.3091362665
 H          0.0225827519        6.3128145926        2.6729471908
 H          0.4006740271        5.5419120067        1.3684462720
 O          4.0258940473        2.7821745111        4.1601772341
 H          4.0014558733        1.8822140062        4.5200261381
 H          4.8569969354        2.8288141325        3.6687515464
 O         -6.4406092508        1.3393377623       -1.6404967258
 H         -6.4467747507        2.0724812738       -1.0078830930
 H         -5.6333890786        0.7991787130       -1.4587061403
 O         -5.3512221392       -1.6494099832        0.9328278836
 H         -4.4969135552       -1.5332834135        1.4243626752
 H         -6.0129698595       -1.2214553558        1.4924569204
 O         -3.7513686922        1.3972053422        4.7955655111
 H         -3.2004632445        1.4525108481        3.9893561929
 H         -3.1423386440        1.5489495179        5.5225806879
 O          1.5474954085       -1.9469217214       -1.6805116770
 H          1.1627857955       -2.7697869005       -1.3184343227
 H          2.4206655701       -1.8713941583       -1.2134740459
 O         -2.5862042424       -5.7743679467       -1.1567540740
 H         -2.4027799567       -5.0560644967       -1.7893619274
 H         -3.4049032095       -5.5250928204       -0.7028233214
 O          5.5315879245       -0.7791871091       -3.6041551815
 H          4.6170784673       -0.5364428902       -3.3981214139
 H          5.7935635057       -1.4353698002       -2.9334876905
 O          2.5861206853       -3.2598301014       -3.8398768456
 H          3.3046532590       -3.8300695699       -3.4797944648
 H          2.3422439708       -2.6701746792       -3.1012588084
 O         -2.6759909315       -3.7422138230        1.8506977583
 H         -2.9260553827       -3.6066806837        2.7845225997
 H         -3.4758927920       -3.9905085736        1.3692482497
 O          1.2206195334        2.6755369655        0.2243508076
 H          0.2873991445        2.8818034249        0.4235883996
 H          1.6820989823        2.8548213715        1.0627910939
 O          7.3142565954       -2.9244170092        0.8576885215
 H          7.9797920038       -3.5707882626        1.0909530120
 H          6.4589124130       -3.2440754037        1.2324604160
 O          3.3367875115        4.8546405901        0.0059504224
 H          3.9183833298        4.9357974865       -0.7521253740
 H          3.5083673984        3.9661135938        0.3725253454
 O         -2.0364307178       -3.6484521535       -2.8239060021
 H         -1.2162943666       -3.9713003052       -3.2308560355
 H         -1.8171800587       -2.7883449284       -2.4131122881
 O         -6.1471994382       -0.7266463170       -4.4576688341
 H         -5.4610815442       -1.3461031056       -4.1763626283
 H         -6.8664981364       -0.8498991618       -3.8222413549
 O         -6.3708908504       -3.0516949149       -1.1229902088
 H         -7.0595615050       -2.4962036596       -1.5184077473
 H         -6.0555258634       -2.5433979081       -0.3497317452
 O         -2.3278569451        5.3483730635       -3.2244645418
 H         -2.8137100287        4.6496923957       -3.7101817583
 H         -1.7485261054        5.7412773600       -3.8837767159
 O          1.4748714493        0.1391319943        5.5294583923
 H          2.4272759938        0.1591844668        5.3021615183
 H          1.2958202594       -0.7537364586        5.8436703079
 O         -2.5434019603       -1.1233060653       -4.8108871193
 H         -3.1106331503       -1.8874304706       -4.6966751518
 H         -1.6480622658       -1.3829444762       -4.5274428237
 O          6.1474807354        2.2613880232        2.4276224781
 H          6.5495524901        2.8164176374        1.7392050606
 H          6.5553291795        1.3886317918        2.3465886218
 O         -5.4708656241        1.8687118140       -4.1314353711
 H         -5.9515153894        1.8944126459       -3.2849985503
 H         -5.7189548449        1.0022123547       -4.5122313795
 O         -7.8433295282       -0.9076920528       -2.1803279158
 H         -7.4247492243       -0.0586607399       -1.9230193443
 H         -8.7752421734       -0.7310379835       -2.3064303071
 O          0.4718131262        0.9085880093        3.1707103775
 H          0.7589608183        0.5963812002        4.0532825742
 H          0.8180978290        1.8217159782        3.0947376659
 O         -0.7189165668        3.8781837345       -1.6564384824
 H         -0.1344946354        3.5696604586       -2.3703743712
 H         -1.4061581854        4.3908757195       -2.1239606519
