  144
       -244.35108815
 O         -5.4632718737        0.7027226047       -0.2464876394
 H         -5.1747857303        0.4095213336       -1.1147169815
 H         -6.1403789692        0.0758592835        0.0594781240
 O          2.4947679393       -1.5578355333       -4.5296063546
 H          3.1430408242       -0.9822652858       -4.0503108953
 H          3.0207363728       -2.1596805255       -5.0562710642
 O          1.9863840207        1.3740126344       -2.5812183465
 H          2.4426839887        2.2242205940       -2.4837458266
 H          2.6909111153        0.6968949866       -2.5653609305
 O          3.2643337379        3.6454976504       -1.7615130266
 H          2.4255377887        4.1652438276       -1.7457608762
 H          3.8619668862        4.0999776117       -1.1288139346
 O          4.1556584742       -0.1124816429       -3.0614825869
 H          4.8082462825       -0.7510016570       -2.6935715619
 H          4.6575611377        0.7240274998       -3.2014479757
 O         -0.0462658662       -4.5180593224        3.7914828564
 H         -0.4272653402       -3.6911499646        4.1498990661
 H         -0.6026360303       -4.7254523097        3.0234041131
 O          3.3446271236       -1.1079230159        3.5628810724
 H          3.9095304501       -1.0037880620        2.7748252976
 H          2.9724419911       -2.0009724298        3.5067024953
 O         -2.9639840246       -1.4136482761        0.1040355819
 H         -2.5398422211       -1.9648831865       -0.5866910485
 H         -2.7027713153       -0.4904803594       -0.0619104662
 O         -4.4430123031        1.0356114753        2.3466865046
 H         -4.5611697501        0.8169318161        1.4083862137
 H         -3.4837147358        1.1401107815        2.4881687441
 O          1.7911769027        1.1025475236        3.3746231060
 H          2.3854678624        0.3374461031        3.5250166952
 H          1.0366224997        0.9672004504        3.9663673012
 O         -0.4464304558        2.2954602373       -1.8213023153
 H          0.3979712983        1.8199808049       -1.9195188650
 H         -0.8979680653        2.2383925296       -2.6788857537
 O         -0.9788541859       -0.6512295964       -2.5494155897
 H         -0.4128573208       -0.3797019261       -3.2943513167
 H         -1.8261536518       -0.1908683024       -2.6515797110
 O          0.7720873984        3.8267469439        1.0278796353
 H          0.6633372933        2.8991223798        0.7477986641
 H         -0.0381423508        4.0416967971        1.5199346696
 O         -3.2923887577       -2.3737945407        2.6815969817
 H         -4.2005059045       -2.1245335941        2.9605457300
 H         -3.1565487606       -1.9140879840        1.8372349168
 O         -5.2279365400       -2.7778588987       -0.4203266569
 H         -4.4881285041       -2.2655859503       -0.0357038773
 H         -5.1450228643       -2.6037270975       -1.3812980087
 O         -0.5401512272        0.4608039389        4.7907344002
 H         -0.8145457484        0.6436841361        5.6887722262
 H         -0.7020731182       -0.5090720922        4.6344224444
 O         -1.8338656171       -4.4801540931        1.6658984451
 H         -2.3521355442       -3.7880024820        2.1160285727
 H         -2.4616058516       -4.8719543635        1.0254670466
 O         -3.2004611066        3.8023507939        0.1702372263
 H         -4.1273107361        3.7370187093        0.4877710493
 H         -2.9351787464        2.8941241514       -0.0534856272
 O         -7.1067659299       -1.3088289052        0.6844320111
 H         -6.4976018759       -1.9769565391        0.2816557397
 H         -7.9990960711       -1.6323949233        0.5662580364
 O         -5.6401604111        3.1932900844        1.1128635210
 H         -5.8940722251        2.5518162438        0.4368476442
 H         -5.3584569992        2.6442886501        1.8630068652
 O         -3.4518633748        0.6492741251       -2.5209642483
 H         -3.1568756747        1.2839482690       -3.1857867030
 H         -3.1947004217        1.0086376730       -1.6565614703
 O         -4.3368720399       -2.0357505157       -2.8363925386
 H         -4.1037842392       -1.0971677122       -2.8462769386
 H         -3.5040119924       -2.5146672561       -2.7313071757
 O         -5.6743671537       -1.2637373713        3.1390948870
 H         -6.2903571781       -1.3410482673        2.3967160838
 H         -5.2988231616       -0.3673380819        3.0576926899
 O          4.5772537172       -0.7821312054        1.1349920197
 H          4.2487804048       -1.5178507723        0.5696142667
 H          4.1921654610        0.0315076366        0.7656802875
 O          2.3929330558       -3.7805348086        3.3020972391
 H          1.4366736570       -4.0244409337        3.4833915906
 H          2.9029980330       -4.2213380655        3.9830259981
 O         -3.5451004856       -4.9849143678       -0.3687089616
 H         -4.3013664268       -4.3808467917       -0.2734924108
 H         -3.0309596582       -4.6358191558       -1.1035244670
 O          7.0535221705       -0.5502549928        0.1897777347
 H          6.1780650565       -0.6394850352        0.6416664160
 H          7.7144468580       -0.8846000203        0.7949858467
 O          2.5121918549       -4.8124385109        0.8482836220
 H          2.7316263836       -5.7348652894        0.9805384793
 H          2.4812353202       -4.3915919906        1.7410149272
 O         -2.1862932401        1.2274716634       -0.1249433905
 H         -1.4166815243        1.5416836162       -0.6534272935
 H         -1.8840330457        1.2615837499        0.8005927027
 O         -1.6605429382        4.1603872659        2.2294740753
 H         -1.9593310897        4.9188003844        2.7297245795
 H         -2.2430564882        4.1133087742        1.4131112703
 O         -1.6613323151        1.9580234831       -4.2886998676
 H         -0.9535579865        1.3568925626       -4.5889113900
 H         -1.6534543074        2.7100016025       -4.8814914135
 O          5.3549984323        2.2656537127       -3.0553111856
 H          4.6647140353        2.9132516780       -2.8570750028
 H          5.8932564703        2.2231637865       -2.2413946070
 O          3.7936807896       -2.7610554938       -0.4685725685
 H          3.0493894011       -2.4582809005       -1.0364750149
 H          3.4637200870       -3.5572468398       -0.0246434203
 O         -1.8609057862       -2.9962112026       -1.8220504273
 H         -1.1723584609       -3.4972129303       -1.3544159407
 H         -1.4029218099       -2.2026504284       -2.1843573523
 O          3.1341497067        3.1958076295        2.1660591411
 H          2.3257101093        3.6118018803        1.8022165227
 H          2.8048518113        2.5474035011        2.8086924880
 O          4.9206650257        4.4598318117        0.2063780366
 H          5.6598814111        3.8521620446        0.0695720524
 H          4.4911211325        4.1959119361        1.0299340547
 O          1.6638212466       -2.1939766509       -1.9467193476
 H          1.7943331394       -2.0753690415       -2.9003659903
 H          1.0069124283       -2.8797110693       -1.8002452168
 O          3.7282789241        1.6192466454        0.1107431330
 H          3.4162304977        2.1722644141       -0.6267224061
 H          3.5427779587        2.1551239200        0.9174807100
 O          0.8503509103        4.7265993795       -1.5282813541
 H          0.2587557986        3.9887461758       -1.7517576158
 H          0.8554449726        4.7209826706       -0.5552839921
 O          0.0482373897       -4.1162922010       -0.2773707099
 H          0.9120828872       -4.4348252362        0.0238187574
 H         -0.5570234879       -4.2504983630        0.4796076919
 O          0.5353836839        0.3802111490       -4.5658632743
 H          1.0912338466       -0.3588901958       -4.8526864151
 H          1.1011224601        0.8568829165       -3.9157659802
 O         -1.0352753364       -2.0370947996        4.1395297413
 H         -1.9782936061       -2.1473986458        3.9194000837
 H         -0.6303351823       -1.8872684791        3.2283815464
 O         -1.7738038838        1.4592255676        2.5761953994
 H         -1.6735245258        2.4281562916        2.5792216581
 H         -1.3233848726        1.1339200235        3.3770160434
 O          5.8796941451       -1.8489472619       -2.0007306911
 H          6.4434847919       -1.3758145161       -1.3694943907
 H          5.2397469468       -2.3452529030       -1.4644264014
 O          6.3180415338        2.0540959153       -0.4971551586
 H          5.4018945824        1.8100526935       -0.2419986425
 H          6.8377220783        1.2534522596       -0.3444897089
 O          1.0105130226        1.0239903416        0.6950424850
 H          1.4178958367        1.0563585961        1.5846579303
 H          1.7007786084        0.7735554594        0.0703902566
 O         -3.0549814628        3.9183123267       -2.6424823934
 H         -3.5082628749        4.6903078895       -2.9792599153
 H         -2.9606529627        4.0577721536       -1.6883101081
 O          0.0774561480       -1.4405284111        1.7398180291
 H          0.0038207169       -2.0446993328        0.9981284250
 H          0.2486807253       -0.5580196982        1.3744019024
