  114
       -193.42545562
 O         -1.4517835125       -1.1897829543       -3.9513299779
 H         -1.9649211249       -1.8909673843       -3.5084124016
 H         -1.7370753313       -0.3474210449       -3.5581237840
 O          3.4984921349        0.8716164272        3.1484383181
 H          4.0087235521        0.0504069874        3.0352617398
 H          2.6794255137        0.6312068567        3.6074675635
 O          4.3735681763        2.6845860543        1.3372952474
 H          4.0485506504        2.0790740554        2.0342381130
 H          3.6569383401        3.3255097888        1.2050326873
 O          5.6618567758       -0.8690800557       -0.2212229604
 H          5.3994451396       -0.0253007693       -0.6274374010
 H          5.1782287170       -1.5530591360       -0.7080620128
 O         -3.5729147899       -2.9682104442        0.6258664229
 H         -4.4608677627       -2.5674276633        0.6344862402
 H         -3.3011895665       -3.0654343255        1.5394184555
 O         -2.6241280296       -3.1024091655       -2.3659885447
 H         -2.8849231791       -3.9648538029       -2.6895419418
 H         -1.9404160362       -3.2754108031       -1.6737567408
 O          6.8265769694        0.8825095687        1.8901121837
 H          6.7466351825        0.3759081109        1.0746487255
 H          6.1914672718        1.6033757515        1.8304181679
 O         -0.5504581437       -3.4691612438       -0.6629501739
 H         -0.7269936231       -3.1027059398        0.2100523973
 H         -0.0814818351       -2.7510172394       -1.1595076383
 O         -2.2797026499       -0.8317982648       -0.3651401584
 H         -1.4963971082       -0.9458435093        0.2148985762
 H         -2.7690627280       -1.6727474463       -0.2659041526
 O         -3.1084057212        1.4163179196        3.2034343753
 H         -3.6021658545        1.0778478231        2.4366943148
 H         -3.1214064225        2.3918641349        3.0886176108
 O         -2.9657155140        3.9782722284        2.3650725330
 H         -2.0249821388        3.9854323247        2.1355830053
 H         -3.4373348008        3.9092627745        1.5212862827
 O          2.1423983409        4.3049372098        0.7384681846
 H          1.8615786860        4.2247162981       -0.2099475103
 H          2.2403237181        5.2430676746        0.9057323395
 O          2.6878456318        1.7887844160       -2.7734839968
 H          2.7104769919        0.8932006059       -3.1636547613
 H          3.4969885726        1.8463419363       -2.2416176101
 O          0.8506472105       -1.2556690265       -5.5553505337
 H          0.6520624149       -0.8286864820       -6.3884544519
 H          0.0182137467       -1.2956627938       -5.0579498846
 O         -5.8723088373       -1.5172007029        0.2740630410
 H         -6.7791766695       -1.8106227723        0.3565302227
 H         -5.6377037114       -1.5905716415       -0.6921979929
 O         -4.6512893932        0.7788990779       -3.2216901249
 H         -4.6247550381        0.9009349304       -4.1712909247
 H         -3.7217138640        0.9063896385       -2.8938766817
 O         -4.2001541138        0.6334098523        0.7931961650
 H         -4.9432110557        0.0173093499        0.7248256626
 H         -3.4423268030        0.1658950432        0.3800784532
 O         -5.0804185789       -1.7514967427       -2.2057668434
 H         -4.2123323109       -2.1884567890       -2.2070801476
 H         -4.9557724076       -0.8680079094       -2.5937840717
 O         -1.4392899976        3.1263687071       -0.9588478758
 H         -1.0324393303        3.2588574140       -0.0732675251
 H         -2.3873938878        3.3048031657       -0.7863078686
 O          1.2461333684        3.9951824996       -1.7386173172
 H          0.3097283969        3.7553563855       -1.6978096746
 H          1.7063641815        3.2962940448       -2.2298546676
 O          0.7850470844       -2.4692030924        3.6905714381
 H          0.2107536917       -2.2974424617        2.9258735226
 H          1.6132515594       -2.8220462408        3.3054952947
 O          2.6198171298       -0.8899851608       -3.4650487068
 H          2.2838989628       -1.0403633098       -4.3601666680
 H          1.8536451891       -1.1223858130       -2.8906941979
 O          5.1025017893       -1.2897354805        2.4447631769
 H          5.8815403374       -0.8577931582        2.8148987079
 H          5.2503239012       -1.2378989321        1.4779010413
 O          0.4550323812       -1.4626218759       -2.0223634104
 H         -0.1886322894       -1.3535510316       -2.7459223556
 H          0.4397700184       -0.6181335237       -1.4805959784
 O         -3.9924170486        3.1945153063       -0.1333392484
 H         -4.0983379187        2.2926817950        0.2269812206
 H         -4.7098191660        3.2935481480       -0.7826467494
 O          1.1798271845        0.0081291284        4.4669981176
 H          1.1755651442        0.0559052586        5.4226717443
 H          1.0617571329       -0.9540761613        4.2327753775
 O         -5.9809597391        2.8296959753       -1.9679218064
 H         -5.5655638096        2.0785078598       -2.4318469054
 H         -6.8145675701        2.5123206330       -1.6193581001
 O          4.9550960079        1.7172874851       -1.0641719965
 H          4.7174928415        2.0737953485       -0.1705201321
 H          5.7113229091        2.2257926271       -1.3605403882
 O         -0.6281317294        0.8958200173        2.6291034737
 H         -0.0799212211        0.7458579758        3.4186890814
 H         -1.5683303349        1.0454255334        2.9338971753
 O         -0.3712777392        3.3714768947        1.4967266630
 H          0.5524088250        3.6614230548        1.4222479437
 H         -0.3704547231        2.4915812624        1.9243685747
 O          3.7820152041       -2.4971390499       -1.5297348024
 H          3.5086574676       -2.1223348238       -2.3834857176
 H          3.3532843536       -3.3630389906       -1.4160527835
 O         -2.1772696665        0.9068286702       -2.3729160134
 H         -1.8749643466        1.7529553601       -1.9922511121
 H         -2.1861289293        0.2714943036       -1.6244072908
 O          2.9419817791       -3.0731182734        2.1864840009
 H          3.8027752435       -2.7683124782        2.5000812160
 H          2.6650441491       -2.3883409603        1.5455289805
 O         -0.3665457682       -1.4405559235        1.3810889702
 H         -0.4895847348       -0.5928131511        1.8734195343
 H          0.5044940700       -1.3662047370        0.9432653083
 O          2.1688503431       -4.3746780959       -0.4022596699
 H          2.3992873819       -4.2544367893        0.5271964019
 H          1.2103192445       -4.2513585376       -0.4744976710
 O          2.2996471664       -0.6570900429        0.8472459153
 H          2.7984112444       -0.6181431634        0.0256507871
 H          2.5546033496        0.1121736026        1.3743599914
 O         -2.1590587070       -2.4241779563        3.5658679441
 H         -1.3509853453       -2.6682714440        4.0282617732
 H         -2.3301398851       -1.5032251360        3.7765581911
 O          0.6185601809        0.9797449116       -1.0033200149
 H          1.3076234763        1.3325273117       -1.5943195587
 H         -0.0979603727        1.6231414077       -0.9709763847
