  384
       -651.79550270
 O          4.4951037746       -0.9212909240        1.1481245520
 H          4.8862114234       -0.0266470885        1.2041806718
 H          5.2378308987       -1.5423902227        1.0488215525
 O          3.1815827596        2.8682627764       -3.5109703561
 H          2.2862272108        2.6237744139       -3.1943344458
 H          3.6505920480        3.2846024647       -2.7706720451
 O         -0.3710960213       -5.1743303928       -2.3430056584
 H         -0.9818283290       -5.4443795064       -1.6414885579
 H          0.4912627919       -5.5314844804       -2.0826324063
 O         -2.1146279603       -3.4448532959        0.9643952352
 H         -2.9075919251       -3.4005191619        1.5211345956
 H         -2.0391362640       -4.3566510770        0.6136334579
 O          5.6164350284        1.5171275547        1.0800862142
 H          5.1623917679        2.3721632992        1.2076360144
 H          5.8311210058        1.4706840438        0.1339820381
 O          3.0835943326        2.2429360438       -0.4117746175
 H          2.4806732243        2.8716268480       -0.8382175236
 H          3.1520453438        1.4266746207       -0.9329048225
 O         -1.3518617367       -0.3829797684       -3.0568872561
 H         -0.8405645173       -0.2530991183       -3.8698796430
 H         -2.2819954698       -0.5201473046       -3.3061119963
 O          2.7036205035       -0.7911313522       -5.2148184832
 H          3.5001798158       -0.3528378674       -4.8591188836
 H          2.9639355532       -1.7035529111       -5.4845367792
 O          0.7393961001        1.8938632669       -2.8126980663
 H          0.9245453792        0.9306932485       -2.8021922689
 H          0.2471572393        2.0540034392       -3.6368507137
 O         -2.2741753801       -1.5258447365        3.7651419653
 H         -2.6229775233       -1.1570136385        2.9359224971
 H         -2.4237261008       -2.4986121959        3.6822689174
 O          0.0849372431       -0.1954654481       -5.4840800295
 H         -0.2606405879       -1.1079502359       -5.5016025944
 H          1.0490529494       -0.2911518549       -5.5446002864
 O          1.5225234716       -0.7021769921       -2.8509885278
 H          1.8957117875       -0.7327063372       -3.7593420842
 H          2.2881280614       -0.5227553469       -2.2614626535
 O         -5.2394930686        2.6556055330       -0.0777452864
 H         -4.3230526302        2.6389161988        0.2431943568
 H         -5.6615626175        1.8658244705        0.2979462529
 O          1.8272106153       -6.6792812008       -1.4085323179
 H          2.7460563995       -6.3202694761       -1.3811744899
 H          1.8757974314       -7.5195061340       -1.8626878583
 O          2.4844058717        5.2665994611        2.2129392023
 H          1.9570222283        5.8270339622        1.5887061805
 H          3.0236159990        5.8723570690        2.7222394310
 O         -2.9210103550       -0.2670641799        1.4507554066
 H         -3.3463867054       -0.2858167705        0.5678141069
 H         -3.3797772040        0.4344514521        1.9427309161
 O          1.0936228831        3.0924199193        2.9493203520
 H          1.6514764217        3.8796213298        2.8161184697
 H          0.8960069372        3.0525659308        3.9083515039
 O          2.8370200102        1.3212499311        2.1062482113
 H          2.0836679908        1.8518962289        2.4342501163
 H          3.0022035814        1.6412182945        1.1969634179
 O         -4.0371341842       -0.1480079098       -0.9545015003
 H         -3.5713441350        0.5576467397       -1.4418991737
 H         -4.9764498125        0.0337568640       -1.1412610802
 O         -0.1622184953       -2.9972300697        2.7948971657
 H          0.4815470195       -3.7083953652        2.9511896158
 H         -0.9309386965       -3.4099233542        2.3704846138
 O         -2.9076228146        1.2784907139        5.2156195728
 H         -2.1420632399        1.0059449689        5.7510336916
 H         -3.1987204733        2.1770151273        5.5065984099
 O         -0.4045416893        0.5390801397        5.9981175606
 H         -0.0900407123        0.3321464316        5.0925317967
 H         -0.4252693942       -0.3181812087        6.4439321694
 O         -0.5767229339       -2.5957020299       -1.5890860295
 H         -0.7544865176       -1.8942695792       -2.2378431663
 H         -0.5587433008       -3.4554663084       -2.0510923018
 O          2.2458622018       -1.7484264867        2.3437290053
 H          3.1086504902       -1.4337896028        2.0119427114
 H          1.9660907651       -2.4442450825        1.7252340475
 O          2.7451317624        5.5351760735       -4.3345548034
 H          3.0700295563        4.6225414084       -4.3162055572
 H          1.7814660463        5.4448595915       -4.2490354999
 O          4.6506135550       -3.9582661962       -3.4323379091
 H          5.5731931074       -3.6561224904       -3.4123568067
 H          4.6295531368       -4.7847807286       -2.9304961854
 O         -9.9857559400       -0.8121322159        0.4812487142
 H        -10.8830165391       -1.0500084781        0.7142703055
 H         -9.4017954447       -1.4997609764        0.8772222707
 O          1.5919375497       -5.0298019338        3.2920833630
 H          1.1855444897       -5.6029755261        2.6192366260
 H          2.4321123016       -4.7398331948        2.8681754313
 O          5.9625192032       -5.5812722050        0.9432203812
 H          6.7979596782       -6.0387118738        1.0273852809
 H          6.1741273713       -4.6177721377        0.9222299575
 O         -1.8549646089       -5.8669029053       -0.1153272100
 H         -1.0684007560       -6.1075503383        0.4106722034
 H         -2.6541159349       -6.3046435096        0.2550791485
 O         -5.0633492056       -3.9392376023        5.2177602749
 H         -4.7432323873       -3.0163542427        5.4298100634
 H         -5.1067450097       -4.3964346783        6.0572261111
 O          4.8434030519        4.1284659237       -1.6302285356
 H          5.7812562515        4.3751353218       -1.5548075921
 H          4.3409308709        4.9782985214       -1.7230513415
 O          3.5034904419       -0.2593250619       -1.2341863888
 H          3.6485890829       -0.5487212754       -0.3105898354
 H          4.2875370449       -0.6198332094       -1.7006345132
 O          1.3662026363       -3.3844946143        0.2271769004
 H          2.2480053703       -3.4062662178       -0.1800910639
 H          0.7613780294       -3.1687509832       -0.5026079246
 O          5.7035421495       -1.5261810839       -1.8870476883
 H          6.2832970216       -1.2102746415       -1.1657697305
 H          6.1573438438       -1.2569173999       -2.7000929573
 O         -7.5985435040        3.9337891255        2.2523352827
 H         -8.0132558348        3.1482807312        1.8738394607
 H         -7.4151870820        4.5174775324        1.4975077941
 O          8.2614204700        2.1604207310       -0.3868347241
 H          8.5531088578        2.2050869264        0.5395367210
 H          7.9275971634        3.0439343635       -0.6141107862
 O          7.3710204734       -1.8568363171        3.2851662222
 H          6.7132404892       -2.3444226051        3.8020589449
 H          7.0977997442       -0.9232328759        3.3544660270
 O         -3.9208686934        4.0897654045       -4.9642176009
 H         -3.6514803008        3.1933274210       -5.2073865282
 H         -4.6005956720        3.9853761294       -4.2797692390
 O         -3.5032075844        5.1237389128        0.9683443047
 H         -3.0916491794        4.2428709578        0.8687033214
 H         -3.7565723625        5.3814776828        0.0604427889
 O          0.6323056741        3.0588110240        5.5930659177
 H          0.2020792600        2.2398933812        5.8873360061
 H          1.5555074458        2.9848370884        5.8937342293
 O          0.1706898181       -0.1909813879        3.4582913338
 H          0.9537818062       -0.6663947748        3.1405839759
 H         -0.5619820824       -0.8341143813        3.4787488045
 O          0.2062514703        4.6999484378       -3.7642835204
 H         -0.0086488615        3.9745744416       -4.3648406985
 H         -0.6250642282        5.1917709533       -3.6456170987
 O          2.0057810961       -3.3656262952       -2.6303791038
 H          1.7514257830       -2.4231494800       -2.6555414150
 H          2.9539010346       -3.4158558752       -2.8111353455
 O          6.6570439703        0.7625848717        3.3728808572
 H          6.8840559441        1.5545440733        3.8635748583
 H          6.3964630354        1.0698487751        2.4722561017
 O          3.2943389779       -3.3181107916       -5.7313881316
 H          2.4633190965       -3.8051509643       -5.6483975143
 H          3.8438209291       -3.6029170029       -4.9806972982
 O          3.8418073339       -4.1810871803        2.1142000276
 H          4.4380549542       -4.8974959542        1.8689750706
 H          4.3037670640       -3.6481121903        2.7943551913
 O         -4.4882603730        1.2142642510        3.0739576432
 H         -3.9320077441        1.1391215337        3.8694718824
 H         -4.6473337767        2.1823965143        2.9480648564
 O         -3.4220693279       -6.0814601059       -2.6473288965
 H         -2.8772320494       -6.4279059916       -1.9358635580
 H         -4.2201179832       -5.7263380798       -2.2207959864
 O         -0.6818046436       -4.9209742400        5.2170807143
 H          0.1215130506       -5.1173216302        4.7239963459
 H         -0.5516611728       -4.0541618243        5.6466459223
 O          2.1294265178       -2.6913993947        4.8370332118
 H          2.2024877449       -2.2901628227        3.9400308959
 H          2.0145694878       -3.6322339791        4.6714925702
 O         -4.2546112195       -1.4991267148        5.6641347087
 H         -3.5170686554       -1.2954421997        5.0578078882
 H         -4.9280311594       -0.8192708205        5.5393363958
 O         -0.3557803565       -2.2456442591        5.8294603181
 H         -0.9792955650       -2.0420508717        5.1193016285
 H          0.5295202020       -2.3205289510        5.4199133199
 O          4.2974594413       -5.7132190633       -1.2860942734
 H          4.0785835178       -4.7776591830       -1.0489123123
 H          4.9062321683       -5.9826285237       -0.5831902917
 O         -3.3146337428        1.9707090683       -2.3943779062
 H         -3.1214581107        1.6902447034       -3.2992851101
 H         -2.6090891126        2.5909958519       -2.1104453974
 O         -4.6070646138       -2.7835077782        1.8395893544
 H         -5.2221108067       -2.4464026813        2.5190334979
 H         -5.0259235871       -2.5426186444        0.9920669827
 O         -1.4558511240        1.9734235066        3.1149520853
 H         -2.0202621238        1.6878956065        3.8679954615
 H         -0.7109358566        1.3516771320        3.1160236291
 O          6.3639526432       -2.9275171426        0.9994466607
 H          6.8381657280       -2.6091198459        1.7910230920
 H          7.0222601290       -2.9394677958        0.2656828785
 O         -1.2871168790        4.4701623842        4.1916979977
 H         -0.6155527333        4.3248645494        4.8694606640
 H         -1.3045232799        3.6352524841        3.6784584132
 O         -5.8780545879        1.1331933518       -4.3440156213
 H         -6.2206259548        2.0260004466       -4.4284645033
 H         -5.9541850266        0.9113757591       -3.3799997396
 O          4.0305675240        7.2553791085        0.6323072985
 H          3.9034860090        6.9793185054       -0.2891422816
 H          3.1923221902        7.6597889289        0.8696981091
 O          5.8473749451        1.5935339510       -1.7002750957
 H          5.3197698128        2.3996544945       -1.6028227151
 H          5.3933050588        1.0602961875       -2.3814418862
 O         -1.2910983097        6.1694465048        2.0715205045
 H         -1.2821744407        5.7351083532        2.9430044138
 H         -2.1848786667        6.0013669475        1.7118199337
 O         -6.2101019988        0.4071771208        1.1035883507
 H         -5.6135091304        0.3916050031        1.8616781291
 H         -6.1387576007       -0.4486740325        0.6260391662
 O         -6.6085059820        4.8972791786       -0.0759771999
 H         -5.9878326728        4.1260355541       -0.0269692544
 H         -6.0965647879        5.6292100304       -0.4242853941
 O          0.8717699412       -4.3802792283       -4.7755694277
 H          0.3207658881       -5.1082010490       -4.4775663934
 H          1.2611451404       -4.0149616011       -3.9363475096
 O          0.6219630037       -5.8667525353        0.9095960980
 H          0.8353748181       -4.9272568145        0.6939877902
 H          1.0779857710       -6.3644993023        0.2139456199
 O          3.9650262949       -3.2130971004       -0.5577000783
 H          4.6047157941       -2.6872076845       -1.0679517300
 H          4.2809096578       -3.2598790784        0.3560044534
 O          7.3759440723       -3.3889359143       -3.5562116475
 H          7.8297114369       -3.8629894177       -4.2524882287
 H          7.4744433001       -2.4316774961       -3.7454189737
 O         -2.7234710869       -3.6667542361       -3.5026090090
 H         -2.8705567800       -3.3018554261       -2.5965871132
 H         -2.7558040167       -4.6344696530       -3.3603488210
 O         -6.3947103272        0.1148772141        4.6507732142
 H         -7.2350712487        0.6100869428        4.5956030499
 H         -5.7779589635        0.5955481228        4.0665363960
 O          4.8947228464       -2.7330380683        4.1270111296
 H          4.3528449915       -2.9937114344        4.8771393543
 H          4.6083331546       -1.8092205496        3.9301414323
 O         -6.2167067212       -1.9339785005       -0.1258280750
 H         -7.0736031362       -2.1892165445        0.2688457390
 H         -6.2889406951       -2.0785646588       -1.0878539074
 O         -5.3621496427       -5.2201836597        2.6113986534
 H         -5.4118452413       -5.1547263724        3.5681549938
 H         -4.9800703957       -4.3609376206        2.3112348046
 O         -7.3280073930       -4.9762023695        0.7393838058
 H         -6.7679565305       -5.2181879093        1.4972227434
 H         -6.7149857364       -4.8631617254       -0.0041471581
 O         -3.8943799333       -1.1550240627       -3.7857265802
 H         -4.4038190701       -1.0246290453       -4.6152648053
 H         -3.4989544663       -2.0342748283       -3.8608864367
 O         -0.6908259437        2.3466709494       -5.0726541281
 H         -1.6474181093        2.2112588306       -5.0548876750
 H         -0.3342891088        1.5319080642       -5.4640074410
 O          4.5183127192        3.9488077875        1.0647808456
 H          4.3929826130        3.9051822717        0.0964678370
 H          3.7014585175        4.3234360074        1.4455508326
 O         -2.7317119752        2.5696630830        0.8412177254
 H         -2.3003571988        1.9872927508        0.1932587984
 H         -2.3085360891        2.3787871225        1.6998223552
 O         -4.1214089306        5.6068269222       -1.6127198300
 H         -3.3967733688        5.7299011538       -2.2463648418
 H         -4.6560266573        4.8831190166       -1.9925708896
 O         -8.2942165731       -2.6243047315        1.4302873667
 H         -7.8109003624       -2.4724240146        2.2632306090
 H         -8.1275841387       -3.5667494719        1.1928101737
 O          3.1840325966        2.4456428055        6.2345718084
 H          3.6177031972        2.6977371608        7.0491572059
 H          3.0429936055        1.4707021267        6.2854465560
 O          4.5694010835        0.6467063881       -3.9048876131
 H          4.0136214302        1.4590774418       -3.8477359549
 H          5.2719741823        0.8520639466       -4.5439723247
 O         -7.9701666078        2.7572848108       -1.1498023606
 H         -7.7094990971        3.6429239958       -0.8507201099
 H         -8.3750527706        2.3368908885       -0.3711526533
 O          1.0182898498        6.9259432762        0.7776491310
 H          0.6323997706        6.7129466729       -0.0899645937
 H          0.2484084429        6.9543741782        1.3659372491
 O         -5.4622273114        3.5075850784       -2.7662712402
 H         -4.7758755283        2.8708785283       -2.4532005271
 H         -6.2516860625        3.3245467962       -2.2480918456
 O         -1.3281060040        3.5608954205       -1.6489018512
 H         -1.1704117628        3.5691069056       -0.6879879353
 H         -0.6005748760        3.0431775461       -2.0276210481
 O          4.2000277967       -0.1932055367        3.8746489184
 H          5.0728374113        0.2412058035        3.8090175813
 H          3.6390215502        0.2377124237        3.2014572127
 O          3.2987917162        6.2173983887       -1.8207900240
 H          3.1680004042        6.2265406737       -2.7949238524
 H          2.5494482296        5.6791231559       -1.4869772292
 O         -1.0537811597       -2.6285953874       -5.3243945473
 H         -1.6443372911       -2.9868537008       -4.6319355859
 H         -0.2903804970       -3.2460654200       -5.3081466951
 O          9.3180077849        0.5473749010       -2.2945672056
 H          9.7520100497       -0.1748380249       -1.8171090692
 H          8.9779625018        1.1383823063       -1.5954167223
 O          8.1748209803       -3.2791694039       -0.8787494462
 H          7.8442617016       -3.3491239487       -1.7877695946
 H          8.8684805820       -2.6027714783       -0.8806154962
 O         -5.3661308959       -4.6315558768       -1.2635444087
 H         -4.6880467591       -3.9290100301       -1.1090819900
 H         -5.9490532452       -4.2355353563       -1.9204680919
 O         -6.0994705829       -2.3976755033       -2.8134753064
 H         -6.8088155120       -1.9404174367       -3.3070492431
 H         -5.3007640633       -1.8461608814       -2.9506895952
 O          7.6710479463        2.6743284490       -3.3954699723
 H          8.5272904637        2.2671768931       -3.2383848109
 H          7.0813127466        2.3247764886       -2.6907210671
 O         -2.7148918070       -4.1388777160        3.6675508302
 H         -3.5235779044       -4.2061325159        4.1934679087
 H         -2.0026020687       -4.5398501857        4.2096571001
 O          8.9566428850        2.2727935818        2.2531979063
 H          8.1867841484        2.7880089856        2.6061751118
 H          9.7417083909        2.7530267202        2.5151466720
 O          1.5169009488        4.3055027980       -1.2920485157
 H          1.0124920473        4.4317740676       -2.1145340160
 H          0.8840151143        4.3413236070       -0.5475428634
 O         -8.4822927116       -1.1411162393       -1.8166916599
 H         -8.8812316898       -1.0884156982       -2.6878063621
 H         -9.1588106083       -0.9659566435       -1.1450298434
 O          6.9761969352        3.7331049990        3.2162901452
 H          6.0507362857        3.4596183373        3.3801075427
 H          6.9135920981        4.5503243406        2.7051539672
 O         -2.5555727087       -0.8019202089       -6.7169745371
 H         -1.9715601534       -0.5094462061       -7.4170693456
 H         -2.0910110235       -1.5311716499       -6.2644045258
 O         -4.9908439100        3.7876280156        2.9096625284
 H         -4.5467825389        4.3542310206        2.2538387941
 H         -5.9536548523        3.8716870449        2.7520605437
 O         -3.6658259895        3.7874375901        5.3573252978
 H         -4.2856061554        3.8775533399        4.6160045122
 H         -2.8507987294        4.2258014007        5.0545345864
 O         10.2600740781       -1.4183359851       -0.5674847679
 H         11.1373008101       -1.7903716228       -0.4774147994
 H         10.0103903176       -1.0648820643        0.3072571833
 O         -2.3162871977        5.7849428119       -3.7235912735
 H         -2.8502880599        5.1316820551       -4.2401441996
 H         -2.3629281895        6.6108344873       -4.2048339742
 O          9.3221273689       -0.4800650688        1.8232466831
 H          8.9096919847       -1.0413992284        2.4921544103
 H          9.1853464113        0.4432356919        2.0940770917
 O         -0.2320714463        4.0681091402        0.7682368457
 H         -0.5893230468        4.9008290451        1.1416680552
 H          0.1676276369        3.6026242401        1.5202409581
 O         -3.2977226513        1.3542704164       -5.1105135879
 H         -4.2437153920        1.1868946368       -4.9032781204
 H         -3.0310079233        0.6095900971       -5.6782999141
 O         -8.5147336962        1.6350947481        3.9967258369
 H         -8.6959015032        1.5111177334        3.0493238778
 H         -8.3633849204        2.5760877838        4.1135506851
 O         -5.1519683541       -3.8182236554       -4.9831700667
 H         -4.2647322448       -4.0471607423       -4.6762944055
 H         -5.6300983536       -3.5174901213       -4.1907290425
 O         -5.2101273679       -1.3795887631       -6.0990256551
 H         -4.4602641951       -1.2273378690       -6.6840428376
 H         -5.2339577118       -2.3426112745       -5.9158439781
 O         -7.6268136444       -1.0050095310       -4.5665472940
 H         -7.4773074856       -1.4847017826       -5.3839217232
 H         -7.0357045597       -0.2311820011       -4.6288250546
 O          7.2829919257       -0.4356383595       -0.0489676404
 H          7.4299898105        0.4619320017       -0.3775021267
 H          7.9632968520       -0.5821117768        0.6225760504
 O          7.3894240071        4.7477850058       -0.8699518008
 H          7.9425975838        5.3601188149       -1.3531037894
 H          7.0972235596        5.1973523699       -0.0355205143
 O         -6.4694427731        0.5995046996       -1.8379764060
 H         -7.1614741100       -0.0942632568       -1.8275809136
 H         -6.9194005383        1.4138807330       -1.5441636834
 O         -0.7296262479        6.2702311296       -1.2483764082
 H         -1.0367349998        5.3905842828       -1.5256473377
 H         -1.5134077145        6.8016844024       -1.1141827370
 O         -4.2590165577       -6.6550032009        0.5869802405
 H         -4.5853695799       -6.3257749525        1.4413748058
 H         -4.8004161018       -6.2154992173       -0.0786225032
 O          6.3390940379        5.7828701029        1.3206203918
 H          5.8313254548        6.5931143825        1.1850999271
 H          5.6414355833        5.0741338029        1.2770522425
 O         -8.6216979539        1.4445254124        1.2095599779
 H         -7.7295200005        1.0238446337        1.1934989671
 H         -9.2357840996        0.7313173256        0.9640060390
 O         -6.6118907783       -2.2469489591        3.5331686463
 H         -6.4112555451       -2.9106395503        4.2032764220
 H         -6.6005116738       -1.3699232813        3.9894141875
 O         -3.4946218185       -2.7350450227       -1.1702764194
 H         -3.7138489332       -1.7796466098       -1.1556790253
 H         -2.8911518148       -2.8990497697       -0.4146542245
 O          6.7008506513        1.3563990102       -5.4324590463
 H          6.7413622602        1.8161038652       -6.2696395265
 H          7.0782342836        1.9668651680       -4.7412710706
 O          7.4965160338       -0.7372882117       -3.7995415827
 H          8.1666605691       -0.2640232199       -3.2566846702
 H          7.2658838760       -0.1453713124       -4.5279555955
 O          4.4837485481        2.8362939421        3.7674612160
 H          4.0483668283        2.7592293795        4.6272174445
 H          3.9380859945        2.3403174227        3.1308910590
 O          2.9575283627       -0.1883342659        6.2302975341
 H          2.3225050713       -0.9076588279        6.2339860040
 H          3.4318345794       -0.2610805350        5.3761020344
 O         -1.2448213252        1.0345010943       -0.6715639908
 H         -0.8393655961        0.4237339644       -0.0238695764
 H         -1.2084075744        0.5514668755       -1.5060525798
 O         -1.5198841248       -6.6757781785        2.6579577425
 H         -0.9136532385       -6.6768371131        3.3984670691
 H         -1.9830876763       -5.8300964079        2.6840966184
 O         -0.0482159006       -0.9367461689        0.6180473081
 H         -0.2451468746       -1.5039592781       -0.1345045063
 H         -0.2085591986       -1.4879020621        1.3893648647
