  99
       -167.96787675
 O          2.4147229924       -2.4156310331        3.5332490129
 H          2.8394866020       -2.9126802698        2.8129645132
 H          1.4622609605       -2.6010304116        3.4780782533
 O          3.6485268670       -3.7007845843        1.3922549998
 H          4.0379653673       -4.5462616006        1.6168031335
 H          3.0999282210       -3.8577020182        0.5714266282
 O          2.5950381908       -0.0242490039        2.4691516645
 H          2.2671281778       -0.2718000082        1.5772432371
 H          2.5366471999       -0.8522849108        3.0065181156
 O         -1.2426037126       -2.5471101674       -3.3084917976
 H         -0.5193077130       -1.8822288412       -3.3210368630
 H         -1.1214833580       -3.0851165454       -4.0910253808
 O         -4.2719171626       -1.8284272883        1.4848778087
 H         -3.6684361150       -1.6904307208        2.2561481668
 H         -4.9646399080       -2.4128867176        1.7929742588
 O          3.0041252558       -2.3655924920       -2.7554422645
 H          3.8000357117       -1.8994956267       -2.4198654724
 H          3.2720054370       -2.8353566264       -3.5462129559
 O          5.6121289136       -1.9876964278        0.5897470700
 H          4.9057644509       -2.5843600523        0.9069304719
 H          5.5278127143       -1.1726068913        1.1137478876
 O         -1.3156875747        0.8110793032       -4.7223482785
 H         -1.3737018092        1.5675799283       -4.1180286474
 H         -0.5280460003        0.3185704824       -4.4648797428
 O          2.1960033485        3.0642149888       -0.4752776577
 H          3.0095559235        2.5610164696       -0.6117734804
 H          1.8939432232        2.8433694391        0.4300315054
 O         -5.1947985931        0.5487224171        0.3932709406
 H         -4.9597327752       -0.3335001408        0.7308331376
 H         -5.2281915779        0.4522929433       -0.5785522578
 O          2.1903990866       -4.1014661849       -0.7381889009
 H          1.3560239897       -3.7266028963       -0.3974520449
 H          2.4599886338       -3.5071734156       -1.4592088362
 O          0.5690426133        1.3075180568       -1.6800366321
 H         -0.2293420369        1.7619654644       -2.0264750983
 H          1.1775594012        2.0255334987       -1.4062363464
 O         -1.5020742340        2.6753078721       -2.6562278503
 H         -1.0979835915        3.4905585352       -2.2937544595
 H         -2.3894259808        2.6513450675       -2.2553682654
 O          0.2725087957       -2.5937632172        0.4153458957
 H          0.8785496591       -1.8538126967        0.2241648827
 H         -0.6124641116       -2.3581521440       -0.0146852377
 O         -1.9787477172        1.1935547838        3.5238071216
 H         -1.4415811564        0.9772868379        2.7435751321
 H         -2.8072200555        1.5655699214        3.1768248276
 O         -2.1350829372        3.6958348019        1.1270067385
 H         -1.5404498856        3.8749379699        1.8868192745
 H         -2.9120818632        3.2882629506        1.5386676621
 O          1.8489196766       -0.4413716931       -0.0861729779
 H          1.1820682139        0.1375618975       -0.4994315576
 H          2.6994897965       -0.0569009663       -0.3834326688
 O          1.1326587408        2.1504844236        1.8409328769
 H          1.7218492414        1.5193852202        2.2888532289
 H          0.4309857828        1.6001792665        1.4587074682
 O         -3.7373601442        2.9224287965       -1.1220640035
 H         -3.2596220633        3.4367603993       -0.4586308626
 H         -4.2395606633        2.2521421286       -0.6475600216
 O         -0.6033552340        3.6616406696        3.3438324320
 H         -1.0509205223        2.9077714908        3.7568999976
 H          0.1859476526        3.2884986320        2.9173374171
 O         -2.5971924605       -1.4867943906        3.5197310130
 H         -1.7430468541       -1.9392304286        3.4290455615
 H         -2.3941058489       -0.5554394276        3.7268052151
 O         -4.2386348359        2.2175993689        2.2422440947
 H         -4.9793226370        2.5974639840        2.7152294242
 H         -4.6205461220        1.6147448680        1.5646049772
 O         -3.3503905425       -0.8260504521       -3.9778834799
 H         -2.7661407895       -1.5341454009       -3.6659500059
 H         -2.7406501399       -0.1681347915       -4.3697256178
 O         -0.3471447151        4.4587353555       -1.0196933629
 H         -0.8870631799        4.3047313545       -0.2324082437
 H          0.5585167241        4.2149343212       -0.7963698463
 O         -0.2539149972       -2.9118231735        2.9527988939
 H         -0.4925466304       -3.8252006506        3.1135282821
 H         -0.0460278808       -2.8426003205        1.9825198240
 O          5.0870932386        0.4102499900        1.8392466990
 H          5.5489275350        0.8865487350        2.5283636778
 H          4.1573593913        0.2565197815        2.1690119054
 O         -5.0146917588        0.4604989556       -2.3140157406
 H         -4.4849916580       -0.0883550428       -2.9352900983
 H         -4.9929839668        1.3500462746       -2.6727597420
 O          0.7985556759       -0.7619390877       -3.3899252694
 H          0.8057521148        0.0083974080       -2.7855858157
 H          1.5778331913       -1.2886523126       -3.1538038589
 O          5.2684726068       -1.2193379873       -1.8598958522
 H          5.4087506804       -1.5665554069       -0.9275365961
 H          6.1070631058       -1.3203172202       -2.3101683476
 O          4.0945710311        0.9574772994       -0.6575849410
 H          4.5594408090        0.8939819405        0.1951330663
 H          4.5681934263        0.3674356967       -1.2637222407
 O         -1.1005878174        0.9541307255        0.8293908745
 H         -1.3750875131        0.2196907324        0.2587333249
 H         -1.5072620313        1.7613506153        0.4865936408
 O         -1.7854974046       -1.3666498721       -0.7213254504
 H         -1.5348788109       -1.4110500936       -1.6488445161
 H         -2.5235670528       -2.0071945748       -0.6518400157
 O         -3.7583643212       -3.2023962992       -0.6826121640
 H         -3.9815424291       -2.7705784351        0.1659937266
 H         -4.4320392501       -2.9381699113       -1.3111071423
