  105
       -178.17481670
 O          1.0776596705        0.3856032874        0.2920093667
 H          1.5491261083        0.7010649951       -0.5091483690
 H          1.7666886284       -0.0142751327        0.8522022699
 O         -0.4376406509       -1.3344332132       -1.2166179434
 H          0.1761951528       -0.9607395576       -0.5640413266
 H         -0.4677959867       -0.6789309797       -1.9368844637
 O          2.5285421029        1.0939694030       -1.8527090627
 H          2.4449403197        0.4591513217       -2.5843999803
 H          2.3704960441        1.9787930995       -2.2412459752
 O         -2.5082794083       -0.4770577657       -4.3890802224
 H         -3.0436476409       -0.2122012252       -3.6239785212
 H         -2.4307864830       -1.4471092134       -4.3288975680
 O          0.7128782852        2.1317176637        2.3100068374
 H          0.6390716539        3.0802811308        2.1180377697
 H          0.7984175555        1.6468163851        1.4587051700
 O         -1.7928942610        0.6898555585        0.0838398743
 H         -1.5086746798       -0.1349571429        0.5385580292
 H         -0.9806658080        1.1981278417       -0.0927054647
 O         -0.0943762281       -3.6339447814       -2.4034215259
 H         -0.7881769214       -3.6021119034       -3.0793371560
 H         -0.2093508471       -2.7828859312       -1.9063094067
 O          3.2530063420       -0.3269175109        1.7740607199
 H          3.6485456952        0.4626150214        1.3329177147
 H          3.4019196920       -1.0692556773        1.1529327538
 O         -2.0501705085        4.2247231200        1.0137439712
 H         -2.5369864233        4.2734358415        0.1640904970
 H         -2.4650379177        3.4828546306        1.5053795975
 O         -3.0576989342        1.9300878543        1.9934627072
 H         -2.6901344718        1.5629207870        2.8071890811
 H         -2.5714684185        1.4379961622        1.2764352016
 O         -0.8196448772       -4.8366986789       -0.1139774819
 H         -1.6529727042       -4.3782282393        0.0765945628
 H         -0.5753232059       -4.5778533565       -1.0271657480
 O         -0.8451824512        2.9785710463       -3.0056715124
 H         -1.0964326617        3.2973930304       -3.8730324959
 H         -0.6450719196        2.0061481304       -3.1142679881
 O          1.9610826243        3.5918809465       -2.7118040075
 H          0.9973533818        3.5770414993       -2.7945537135
 H          2.1709814088        3.9808588056       -1.8496373122
 O         -1.1056798583        0.6645822931        3.6362770310
 H         -0.6309006559        0.4389500889        4.4453569139
 H         -0.4796980926        1.2374289913        3.1432840300
 O         -1.1987224815       -1.3096459970        1.7352652046
 H         -0.3669792045       -1.8153457652        1.6327456720
 H         -1.1110728191       -0.7432129698        2.5254091124
 O         -3.8444689413       -2.5150316749       -1.7961259516
 H         -3.4715593496       -2.7758601018       -0.9375577835
 H         -3.7869602157       -1.5396578882       -1.8181847759
 O          2.7179434509        1.4857352647        3.9658461363
 H          2.0452432499        1.8364193599        3.3435125341
 H          3.2363333189        0.8659958226        3.4399799993
 O          1.3841258456       -1.5328664511        3.4542130059
 H          1.2116442760       -0.9894700840        4.2377722106
 H          2.0255065166       -1.0513391048        2.9081583349
 O         -2.3960889659       -3.1791786670       -3.8648084501
 H         -2.9399660998       -2.9891780824       -3.0481850231
 H         -2.9056645209       -3.7985046825       -4.3863105524
 O          2.1615314384       -4.0475732621        3.4392836949
 H          1.9232965329       -3.0928383854        3.5401922817
 H          2.1966417712       -4.4201211104        4.3196103088
 O          0.7263452264       -3.1077265730        1.1143680245
 H          1.0680057017       -3.5557858617        1.8947248550
 H          0.1756133387       -3.7798689082        0.6341941876
 O          3.0014790254       -2.3299254547       -0.0287032127
 H          2.0937482639       -2.5346704121        0.2945360816
 H          3.5406871645       -3.0644758806        0.3162837728
 O          2.0859305055       -0.6035891876       -3.9519388574
 H          2.2355523732       -1.4790461222       -3.4801785511
 H          2.6625114072       -0.6113932071       -4.7149181603
 O         -0.1714465726        2.8273977249       -0.3348804360
 H         -0.8149525077        3.3688897465        0.1689048959
 H         -0.3900445646        2.9434367859       -1.2669678196
 O          0.3739870212        4.8733650396        2.0459770772
 H         -0.5295961830        4.8205508559        1.6810524515
 H          0.3014131592        5.3031590082        2.8981001766
 O         -2.8708524208       -3.1286550775        0.7095278662
 H         -2.2697830827       -2.4258667164        1.0430869533
 H         -3.4720619016       -3.3375374932        1.4237643487
 O         -0.3364180931        0.4412374681       -3.2783132984
 H          0.4925233326        0.1099681185       -3.6636110281
 H         -1.0901429219        0.0857973670       -3.8169935441
 O         -3.5398593669        0.1939597991       -1.8743411337
 H         -2.7840261709        0.3011399295       -1.2553554415
 H         -4.2593578982        0.6804541408       -1.4569660819
 O         -4.8945261420        1.9420649400       -0.1013458877
 H         -4.3791929411        1.8889765021        0.7235296029
 H         -5.7206123461        2.3739395841        0.1166107272
 O         -3.1378630049        3.7242937400       -1.3825929381
 H         -3.7426847303        3.0092861331       -1.1280622023
 H         -2.4755906563        3.3428777786       -1.9753419791
 O          2.2295731106        3.9461705567        0.0784908392
 H          2.0147012058        4.5948431899        0.7542540181
 H          1.4035531706        3.4293170110       -0.0425020487
 O          2.4966036664       -2.8234377411       -2.6886867737
 H          2.7474107674       -2.6062562764       -1.7690476470
 H          1.6258887269       -3.2611176849       -2.6340839196
 O          3.9892971990        1.7896507990        0.3524979429
 H          3.5086367024        2.6302245573        0.4227018319
 H          3.7341619066        1.4478726546       -0.5201054212
 O          0.9863358442        0.2546760609        5.5159933597
 H          1.6642178598        0.7922012120        5.0247103361
 H          1.2371472691        0.2781541083        6.4385754853
 O          3.8956190213       -4.5030047184        1.3347478923
 H          3.5658696119       -5.3112434650        0.9385297059
 H          3.3624443972       -4.3521336961        2.1357951732
