  534
       -906.51823978
 O          7.3259429809       -5.4392899744        1.6353226473
 H          7.9122654195       -5.0620324035        2.2973382790
 H          6.6350020691       -4.7715397755        1.4626023261
 O          5.7461284508       -0.4152687724       -2.2578310880
 H          6.6640477434       -0.1960322149       -2.0243767875
 H          5.7051706487       -0.5012966548       -3.2279051892
 O          2.2260176451        2.6900881847       -1.9446763523
 H          2.9273378259        2.1142389620       -1.5947672853
 H          2.2754621027        3.5354326496       -1.4719196397
 O         -0.1771068279        3.9615756390       -0.1953914418
 H          0.1226780163        4.4506152206       -0.9851968908
 H         -0.9500865282        4.4109061473        0.1622187429
 O          2.8895221926       -0.0578813309       -3.1912649509
 H          2.0270524639        0.3672776970       -3.3577975175
 H          3.5380532245        0.6767518118       -3.2119875250
 O         -2.2464926566        0.2320816547       -2.4991416688
 H         -2.9635811574        0.7875255017       -2.8533352983
 H         -2.6617537203       -0.3873911616       -1.8691310852
 O          0.0266122117       -4.7341038227        1.2063662241
 H         -0.0312019910       -4.9557037201        0.2524039548
 H         -0.0031630795       -3.7616187814        1.2618524034
 O         -3.2920207225       -1.3267519314       -0.5897113900
 H         -3.4557525145       -0.4882551998       -0.1031686445
 H         -2.8205699792       -1.9219715351        0.0071229378
 O         -3.2232331896        3.3268504623       -1.0028729028
 H         -2.6820674299        3.2760156633       -1.8143594198
 H         -3.2763905358        2.4407953576       -0.5721078998
 O         -0.2152632506        1.6024338595       -1.4618383956
 H         -0.3743991209        2.4384870862       -0.9914908622
 H         -1.0639287818        1.1910082580       -1.7058674718
 O          6.9053224725        3.8694173360        2.6680159248
 H          7.7209707304        3.3767709043        2.8651451130
 H          7.0859882441        4.3937756626        1.8829485704
 O         -1.4978897415       -0.5142008076        3.1245377560
 H         -1.4257175374       -1.4918905519        3.2002637071
 H         -0.9524283806       -0.1138516889        3.8198450376
 O          2.0514829386        1.1584537880       -6.2967605859
 H          2.6172356756        1.9327891362       -6.4505076146
 H          1.6648690985        1.2694583326       -5.4074938747
 O         -4.3827886251        1.6965928364       -3.1625318010
 H         -4.6689020065        1.9480333780       -2.2655264568
 H         -4.6201447644        2.4516588272       -3.7278877827
 O          3.8368575318       -1.4139461593        0.5829377402
 H          3.6587641513       -1.4406650178        1.5324715295
 H          4.6462471147       -0.8802186824        0.5066132940
 O         -6.2993636098       -6.5280318632       -1.3875281614
 H         -5.5135427255       -6.9416344789       -1.7726255465
 H         -5.9426330313       -6.0737405577       -0.5961024786
 O          0.1573895193       -5.2969402565       -1.3819969841
 H          0.7554116556       -6.0695081425       -1.4829761555
 H          0.6527810624       -4.5479264662       -1.7746600279
 O         -1.3453948868        4.3016312977        5.7096794195
 H         -0.5131521805        4.7689833565        5.5207742428
 H         -1.8677641006        4.3996726979        4.8981433394
 O          2.6891670853        1.8860371359        3.2173067929
 H          3.6079829112        1.8175069930        2.9006235612
 H          2.2258899738        2.2850303110        2.4469719911
 O         -2.1087284405       -3.4567572010       -2.0534511654
 H         -2.3192134915       -3.6777124852       -1.1383611586
 H         -1.9673264183       -4.3006060686       -2.5307075649
 O         -2.6537264221       -3.5827268207        0.8320523980
 H         -2.5891747668       -4.5457679056        0.6967654643
 H         -2.1648778656       -3.4073042619        1.6561780596
 O         -0.1113526364        1.3259110312        4.5323901872
 H         -0.9990208117        1.5658084099        4.8495082079
 H          0.4838056990        1.2631067336        5.3013325023
 O          0.0515115944        3.6338372232       -6.2411552384
 H         -0.9082032703        3.7830024335       -6.3306320869
 H          0.2369619595        2.8967230876       -6.8319375833
 O         -5.8184279882        1.6939006441        4.8466248582
 H         -5.4219781616        2.1478190567        5.5963595593
 H         -6.1484554751        0.8293954690        5.1751800944
 O          3.5281959641        3.5053452668       -6.3641425690
 H          3.3125604971        4.2880416155       -6.8756605025
 H          3.0768467237        3.6536297677       -5.4944614350
 O          4.4229540495        4.5875666582       -2.6458920702
 H          3.7996473715        5.1870651926       -3.0932299145
 H          4.2674428012        3.6892671758       -3.0010300597
 O          2.0053841850       -3.2536429220        2.6584025610
 H          1.3239670002       -3.6269481200        3.2213748924
 H          1.9172791608       -2.2909688860        2.6951513645
 O         -0.7611455231        1.2039469342        1.2259413514
 H         -0.4871292233        2.0325935780        1.6535065001
 H         -0.9236851418        0.5628597164        1.9409794332
 O          5.1839094218        1.8299728726        2.2248711398
 H          5.5410161990        1.1706351926        1.6007639553
 H          5.7824064531        2.6042817133        2.2037668844
 O          1.4457928960       -6.9208878377        1.7924463566
 H          0.9917703513       -6.0662116910        1.6584056305
 H          1.8467274895       -6.8649043745        2.6850603397
 O         -3.2375336241        1.1035152131        0.4122007557
 H         -2.2943814097        1.1676311879        0.7001905682
 H         -3.7739734420        1.4170493216        1.1685073669
 O          4.0617453613        1.1203363149       -0.7414674657
 H          4.5447600118        1.8449662645       -0.3147802810
 H          4.7002183998        0.5702545397       -1.2262103867
 O          5.1815335524       -3.7790190350        1.3334616637
 H          4.3170446733       -3.8135134266        0.8461895306
 H          5.4455938440       -2.8549067299        1.3077469755
 O          0.5607312439       -1.5075292762        4.9454128459
 H         -0.0552584057       -1.1733573798        5.6202156057
 H          1.3491038996       -1.8333025774        5.3934363685
 O          7.5034013676       -3.7991240220       -3.2098894771
 H          6.6218768809       -3.9902483557       -3.6049921068
 H          7.8624057703       -4.6381032454       -2.9047786523
 O          3.4795410162       -6.7235450483        0.1917139029
 H          4.2146490177       -6.9992169728        0.7800700992
 H          2.6825315059       -6.9058345041        0.7534187141
 O         -3.8573034502       -2.4015277459       -3.7321837859
 H         -3.2769484258       -2.6275218997       -2.9776821085
 H         -3.9831931779       -3.2507645150       -4.1987236112
 O          1.4960974914       -3.4858355286       -2.7544025002
 H          2.3414521916       -3.1022642136       -2.4137325656
 H          0.9291017191       -2.7579491572       -3.0335557108
 O          4.5708871775        2.0159532876       -3.4396622938
 H          5.3353493686        1.9206895569       -2.8376357722
 H          4.9387552071        1.9749984942       -4.3431897972
 O          6.1758545636       -0.2156539624        0.7860823132
 H          6.8631870932       -0.2450397491        0.1053121229
 H          6.5379736645       -0.6036908048        1.6166043092
 O         -0.5602007335        6.8918686187        1.1709444852
 H         -0.4874836584        7.1786393350        0.2375329019
 H         -1.2967747399        6.2558670008        1.1533500131
 O          1.9612656215        2.6735273262        0.8858635178
 H          1.1730649266        3.1163854487        0.5320454558
 H          2.7271690509        3.1113559746        0.5074273233
 O         -4.9314183265       -2.3439441383        1.7961237615
 H         -5.2493467235       -1.7715412942        1.0674449027
 H         -4.2149560304       -2.9078958054        1.4566131026
 O          5.0184700768        4.3739072349        4.6669518595
 H          4.7025231004        4.5410870036        3.7481037255
 H          5.9009001613        4.7471178773        4.6815892793
 O         -1.5070832684       -1.5739315139       -7.1470812616
 H         -1.9132038257       -2.4493581171       -7.2815385574
 H         -0.6774146269       -1.7850821472       -6.6709910700
 O          1.7711675630        5.7657565595       -6.3530405322
 H          1.2978905936        6.5115911859       -6.7202537510
 H          1.1303075273        5.0292345485       -6.2805589254
 O         -5.1218623755       -3.2238459766       -1.2053653788
 H         -5.0564888648       -3.8928246079       -0.4928211242
 H         -4.4707037889       -2.5220146447       -1.0214302134
 O         -4.5233940867        2.2850903566        2.3964239743
 H         -4.9288165979        3.0656110558        1.9828061456
 H         -5.0605894628        2.0584449636        3.1649244740
 O         -4.3561590840        2.0097822452       -6.2748329617
 H         -5.2331965326        2.0738662929       -5.8726975260
 H         -4.0187128968        1.1343417736       -6.0454473028
 O         -6.9300824238        1.6470719450       -5.1168861508
 H         -6.6567578470        0.7016194362       -5.1991482494
 H         -7.6899083796        1.7388272594       -5.6909810015
 O         -2.5521506581        5.1075268557        0.7589640038
 H         -2.8728934076        4.4302681815        0.1123238806
 H         -3.2440720906        5.8028549333        0.7662996358
 O         -0.5101851949       -1.6277449212       -3.3177246396
 H         -1.0817379847       -2.3214561883       -2.9490954968
 H         -1.0085270902       -0.8032375525       -3.1659829279
 O         -4.0863707227       -0.4308592515        3.3974215137
 H         -3.1214780711       -0.3844527038        3.2039101319
 H         -4.3915309693       -1.2071891681        2.8722359615
 O          2.7527216671       -3.1264118253        5.6796895362
 H          3.3282411298       -3.5381814746        5.0052298951
 H          3.2744790479       -3.0663708960        6.4791221468
 O         -6.7128589106       -0.6919392974        5.6286671157
 H         -6.4779710194       -1.4994422029        5.1150549370
 H         -7.6607557514       -0.5733143551        5.4892728087
 O         -1.8582695608        3.5259659383       -3.3067820036
 H         -2.3578677739        4.2257929636       -3.7793133670
 H         -1.7866568550        2.7784805398       -3.9286859500
 O          4.8585271881        3.6355593918       -0.0642887273
 H          5.7965944671        3.8814042040        0.0082814918
 H          4.5325491659        4.0934476554       -0.8605964208
 O         10.1104426053       -1.7953661072       -2.0883028203
 H         10.0151452742       -2.6960534724       -1.6869443610
 H          9.9962197868       -1.8763995758       -3.0368249374
 O          5.2983628155       -7.2178989395        2.0712894209
 H          6.1142658479       -6.6921847576        1.9876368931
 H          4.9607693277       -7.0949478101        2.9603016796
 O         -0.6384113244        7.2743076584       -1.4675697294
 H         -1.5910934730        7.2509859263       -1.6885134415
 H         -0.2673451509        6.4916321967       -1.9165923639
 O          7.0514044182        4.7030702921       -2.8205698577
 H          6.0720591699        4.8122801549       -2.8548812786
 H          7.3480096177        4.4580219804       -3.7080699949
 O         -7.6392541454       -4.8155157503        1.9011342878
 H         -8.1514588381       -5.1506788875        1.1381877486
 H         -7.6486413893       -3.8388051484        1.8143675843
 O          2.5442723285        3.4464117772        5.3572836125
 H          2.5522889655        2.8808175674        4.5449856061
 H          3.4162192050        3.8604095288        5.3870995279
 O          7.9646261786        3.3040461029       -5.0904721191
 H          8.6416255623        3.5780810789       -5.7081749198
 H          8.3520156236        2.5626206796       -4.5591159450
 O          1.4063893572        5.3666948088        2.0341213012
 H          0.7291175675        6.0113299795        1.7282202420
 H          0.9175940954        4.5318877883        2.2045450613
 O          5.6994847696        1.9968132638       -5.8662359767
 H          5.0252285561        2.5842996037       -6.2493725972
 H          6.5004087346        2.5277196055       -5.7077138744
 O         -1.6155012502        1.4823496582       -5.0723707207
 H         -1.2860183552        1.4647235199       -5.9925432263
 H         -2.2744015046        0.7629951623       -5.0214814753
 O          8.8143217739        1.3337625449       -3.5179161275
 H          8.0524013374        1.5293398897       -2.9197600393
 H          8.7012419595        0.4068319707       -3.7911031094
 O          3.6473832688        7.3551044605       -1.2603540834
 H          2.9263616843        8.0121849968       -1.1889578648
 H          3.8136226105        7.2603670414       -2.2036066790
 O         -4.0503980224        3.3464722490        6.4070235200
 H         -3.4519562594        4.0197818506        6.7372970411
 H         -3.4946380748        2.7690032794        5.8311427991
 O          3.5345267076       -0.1024571802        5.5643812107
 H          2.7621413858        0.2495851757        6.0260716790
 H          4.0959874112        0.6685307005        5.3494725095
 O          0.6049668594       -2.2671861408       -5.6484481941
 H          1.5464026513       -1.9983800559       -5.6627331900
 H          0.2189246961       -1.9420581347       -4.8100623380
 O          0.7225152357        1.2679645283       -3.8949483995
 H         -0.1639342773        1.2183988121       -4.3065341096
 H          0.5448866462        1.5644551143       -2.9745141835
 O         -6.0568506947       -0.7586690038       -5.6719455507
 H         -5.0893765311       -0.7220845824       -5.7156848635
 H         -6.2947776048       -1.6999937806       -5.6571459760
 O         -6.7364583816        0.0136900769        2.6227654882
 H         -7.4336273639        0.0177335175        3.3120351276
 H         -5.8650989422        0.0191209659        3.0398322479
 O         -1.0954125423        2.1402908250        7.2746269829
 H         -1.1709329004        2.9105914255        6.6639940100
 H         -1.6910705175        2.3177003539        8.0019035884
 O         -4.4413890287        6.9399420621        1.0381259160
 H         -4.3362868308        7.1769609313        2.0057344482
 H         -4.4843453503        7.7564696447        0.5427455140
 O         -0.3424071754       -7.8895579054       -0.0658224280
 H          0.2297542668       -7.7692499520        0.7085071050
 H          0.2486077552       -7.9912485099       -0.8183920053
 O         -1.3477501468       -3.5535211613        6.6927069324
 H         -1.2736193851       -2.6063116365        6.8636547246
 H         -2.2241185946       -3.6917937410        6.3063587699
 O         -0.4332452783        1.0291663345       -7.4467467162
 H         -0.8385277463        0.1694449571       -7.6250102796
 H          0.4915875746        0.8518037389       -7.2006392081
 O          7.5356656332        2.1138577679        0.5593102530
 H          8.2327232437        2.7875433000        0.6191580191
 H          7.9138577718        1.3071383124        0.9298192042
 O         -5.3915155994        4.0415992854       -4.1025989220
 H         -6.2989844527        3.8637124259       -4.3528903928
 H         -5.4139513588        4.4172398205       -3.1860051804
 O          8.0867248496       -2.4703050259        0.8437903312
 H          7.3540890233       -2.5274206454        0.1827742114
 H          8.3704420005       -1.5466215748        0.8995376388
 O         -7.8482217005       -2.1754119806        1.6243590488
 H         -7.3321056446       -1.3966468163        1.9175539493
 H         -8.7669308401       -2.0377910998        1.9325791999
 O          6.6723379823       -3.8939123552        4.9977066668
 H          6.4999085240       -3.0426366765        5.4306586572
 H          7.4210144798       -3.7530056457        4.3894906940
 O          4.0992670944        4.9351125597        2.2062395137
 H          4.3105313283        4.3348351885        1.4636809763
 H          3.1439492103        5.1006438241        2.1849928908
 O          2.5238277370       -6.2430284938        4.1272316405
 H          1.7728682932       -5.8005835810        4.5395583722
 H          3.2035139274       -5.5570357358        3.9919581293
 O         -6.4631672552       -3.4641532241       -5.6721799015
 H         -5.8637317322       -3.9099758765       -6.2716282732
 H         -6.3576653181       -3.8952250136       -4.8060874207
 O         -2.3459256026       -4.1340690658       -6.8046076819
 H         -2.9883871404       -4.4367286640       -6.1512816176
 H         -1.5148567364       -4.5670420012       -6.5716744323
 O         -8.6790089900       -3.8131615944        4.2155911207
 H         -8.5114441107       -4.4713317176        3.5217170090
 H         -9.4062040361       -3.2663181455        3.9056190023
 O          0.2357293255        5.0340551347       -2.6475333069
 H         -0.5401281875        4.4915212399       -2.9074642556
 H          0.9772436607        4.6821243393       -3.1747170122
 O          5.3816665900        1.7172692956        4.8311828747
 H          5.2753508812        2.6838280989        4.9389042934
 H          5.3297469360        1.5976096066        3.8513756833
 O         -8.3425512430       -0.5265255960       -2.8450011488
 H         -8.5745244817       -1.4215431513       -3.1461322056
 H         -7.3688908979       -0.5028814533       -2.9140586742
 O         -5.6571258510       -0.6559072532       -2.7582374384
 H         -5.1221999185       -1.3755512952       -3.1371592317
 H         -5.2324077762        0.1735431999       -3.0423202566
 O          1.5004847052       -0.4597169014        2.7209741277
 H          1.0781970234       -0.7276145813        3.5619178391
 H          1.9901892798        0.3551139210        2.9598110016
 O         -8.6995437127       -5.3436834647       -0.4967911844
 H         -8.3691575387       -4.4666448333       -0.7955396422
 H         -8.1195046514       -6.0007689454       -0.8972909634
 O          9.2201874153        2.4107595017        3.0420562311
 H          9.2207185713        1.5791775300        2.5247796345
 H          9.7153892341        3.0415588920        2.5051508302
 O          5.5267308729        6.8030388298        0.7413102581
 H          4.9116907895        7.0839891843        0.0469417971
 H          5.0058725571        6.2878989821        1.3829972678
 O          3.7236420575       -2.3421645234       -2.0445612917
 H          3.5600159834       -1.4430161639       -2.3739316345
 H          3.7925200026       -2.2669262971       -1.0789122709
 O          7.8563414250        0.8224835942        4.9330132650
 H          8.3605500070        1.5110668132        4.4792852286
 H          6.9462456205        1.1918821992        5.0188708549
 O         -1.2573633500       -6.0424382803        3.1794790089
 H         -0.7252085756       -5.7868473798        3.9373177933
 H         -0.8535380417       -5.5955238864        2.4082540542
 O          8.7464987274       -3.4091142492        3.2435213895
 H          8.3257496641       -3.0254845063        2.4462588396
 H          9.0735957723       -2.6419876141        3.7353626177
 O          5.8923368435       -1.4532337331        6.0606682338
 H          5.0120129778       -1.0489006217        5.9826237623
 H          6.5189576023       -0.7341959679        6.1541303446
 O         11.1271683848       -2.9356354691        1.5690755848
 H         10.9606554971       -3.5078695079        0.8074926409
 H         10.4713150179       -3.1929718141        2.2319343915
 O          1.5032122455        1.3872641480        6.6990009388
 H          0.7563125620        1.6445616733        7.2538995304
 H          1.9244563962        2.2169610668        6.3937503000
 O          1.8460655523       -7.2449779518       -1.9670337621
 H          2.5911554348       -7.2190009081       -1.3461822288
 H          2.1542201589       -6.8517196981       -2.8041381948
 O          2.8122930003       -4.0436454502        0.2113415179
 H          2.3665890459       -3.8337037035        1.0540395276
 H          2.8617708334       -5.0090037302        0.1465432140
 O          9.7230309454       -3.9442889608       -0.6546724161
 H          9.1241585941       -3.4603820258       -0.0412107752
 H          9.2082666250       -4.7225374907       -0.9319773771
 O         -5.3017743608       -5.1009083857        0.6910076838
 H         -6.1457183233       -5.0033676836        1.1872407747
 H         -4.6404905619       -5.2329104349        1.3918103889
 O        -11.0271661116       -0.4450455580        0.2204370176
 H        -11.5910043556        0.2274230047       -0.1618964866
 H        -10.9250345084       -1.1469414998       -0.4515013846
 O          4.3876535083       -4.2581929094        3.8289117020
 H          4.6266651786       -4.2037703779        2.8775074150
 H          5.2556799207       -4.2357794101        4.3095473773
 O         -3.7073542135       -6.6158252200       -2.1159563926
 H         -3.3342798920       -6.4409037374       -1.2320081954
 H         -2.9649006591       -6.9016990647       -2.6527223927
 O         -3.8021434673       -5.3989309994        2.9002023642
 H         -2.8608428667       -5.6245743156        3.0739235911
 H         -4.2900791922       -5.6118826834        3.6937481839
 O         -7.2772425280        2.2248266989        1.2768765537
 H         -8.0513659465        1.9621452859        0.7665790340
 H         -6.9871543334        1.3996258927        1.7220295840
 O         -7.3513394649        3.5628541328        3.6093070556
 H         -6.9643643141        2.8360365213        4.1308876271
 H         -7.2319041299        3.2975150693        2.6752622170
 O         -3.6431045943       -3.3558513244        5.1577634429
 H         -4.5282761430       -3.4803677853        4.7758614747
 H         -3.7005334921       -2.4666476313        5.5633011893
 O         -1.6377851178       -3.1288558819        3.3728977355
 H         -0.8742863769       -3.4983582646        3.8386602764
 H         -2.4150011141       -3.2832730146        3.9517438890
 O         -4.1064790348        7.3370552719        3.5756693606
 H         -4.5353975815        6.5567964426        3.9641528174
 H         -3.1593118056        7.2511037890        3.7771673352
 O         -5.6496257230        1.9701111607       -0.8076590540
 H         -5.5439263052        1.0418901021       -0.5151437513
 H         -6.0618863883        2.4004593707       -0.0367172580
 O          0.9263937813        5.5276255416        4.7890131318
 H          1.1663597167        5.6133289720        3.8514685593
 H          1.5201693133        4.8289161473        5.1245143649
 O          6.8017297990       -1.1687484628        3.1440751725
 H          5.8546467314       -1.3179208546        3.3494472144
 H          7.1258135070       -0.5191195241        3.7798283046
 O         -0.1092453735        3.3114745611        2.7905010495
 H         -0.9515003107        3.7214504220        3.0242556565
 H          0.0731294349        2.6389166216        3.4826084938
 O          2.4394237239        5.0517208953       -0.5436827916
 H          2.8973829456        5.8598495771       -0.8331026509
 H          2.0397142767        5.2489135478        0.3164266997
 O          9.1281651506        0.0416194986        1.6749461974
 H          9.9186481644       -0.0947124616        1.1008944595
 H          9.3075848572       -0.4458260267        2.4975472302
 O          4.1580509112       -1.4924498596        3.3352136958
 H          3.7841448767       -1.0123464366        4.0934693109
 H          4.0255178869       -2.4375881897        3.5057657447
 O          7.8766545721       -5.8805867969       -1.0656411587
 H          6.9296950811       -5.8004695807       -1.2844766896
 H          7.8702700118       -5.9908348447       -0.1022642958
 O         -3.9407613401       -4.9304051609       -4.6049235061
 H         -4.7148331676       -5.1874945705       -4.0793137584
 H         -3.1749140072       -5.3243328517       -4.1580654367
 O         -3.1723388650        6.8020028035       -2.2250824579
 H         -3.0859306308        6.5237392829       -3.1451970982
 H         -3.9095169915        6.2784868670       -1.8744003047
 O         -5.2074577512        4.9827497979       -1.6569403805
 H         -4.6236732466        4.2899825204       -1.2776854709
 H         -6.0280895930        4.9713138953       -1.1525795586
 O         -7.7662548744       -2.8518592687       -0.9170359010
 H         -7.8014877117       -2.5222268440        0.0078687824
 H         -6.8133079568       -2.8846744672       -1.1307571618
 O         -8.6662433224       -3.1009531158       -3.7578357447
 H         -8.4628025724       -3.0827025508       -4.6962852979
 H         -7.9476632424       -3.6189465939       -3.3553852711
 O        -10.8391283973       -3.9813243449        0.7028517153
 H        -10.8627094862       -3.4527506294       -0.1118254171
 H        -10.2768970550       -4.7335492809        0.4830632694
 O          7.2648633325        5.0149540760       -0.0827260553
 H          7.3200597381        5.0798409932       -1.0463767711
 H          6.7161035833        5.7863202396        0.2061363991
 O          3.0867371193       -1.2287388303       -5.5345810109
 H          2.8370516137       -0.4515454044       -6.0645185357
 H          3.0156629195       -0.9097988049       -4.6011390831
 O          4.8968906860       -4.2272474849       -3.7306002627
 H          4.5050866525       -3.4076354676       -3.3896565523
 H          4.9510213292       -4.7937207804       -2.9324460415
 O          1.4805235044        8.9458573783       -1.2440990532
 H          1.2710576742        9.5936291341       -0.5717249826
 H          0.6712641412        8.4211666493       -1.3919404701
 O         11.1851480444       -0.6144395914        0.1463633721
 H         10.9396929163       -1.0164983341       -0.7029418501
 H         11.3838550318       -1.3788266184        0.7222829881
 O          6.3132192029       -2.7530642451       -1.0351687232
 H          6.8456070592       -3.1246319484       -1.7641532057
 H          5.9085971983       -1.9446493237       -1.4048833362
 O          6.8218462642        2.1735395071       -1.9756585079
 H          6.9585798889        3.1178624194       -2.1963559477
 H          7.0125097696        2.0925386511       -1.0131133093
 O          5.2444450017       -5.2958179393       -1.3397367648
 H          4.6136418170       -5.8005879148       -0.8069154007
 H          5.3676755405       -4.4297984822       -0.9129644883
 O         -5.6419883338        4.4552819498        1.2156315047
 H         -6.5034166462        4.4422821489        0.7772681405
 H         -5.3378783139        5.3718747468        1.2155914982
 O         -9.9573652623        2.7560023616        0.3116841230
 H         -9.9854420243        2.2611209114       -0.5437207580
 H        -10.7433665915        3.3016491058        0.3292958638
 O          5.6737997369       -0.6031919324       -4.9797737184
 H          5.7129849004        0.2559446047       -5.4270594164
 H          4.8638562917       -1.0420459654       -5.2991547687
 O          8.1786285469       -1.2809525052       -4.1558574336
 H          8.0376785064       -2.1818148460       -3.8271781756
 H          7.3609404330       -1.0767365270       -4.6362086976
 O         10.0911426052        1.7718942839       -1.1117392296
 H          9.9739432357        1.6821082976       -2.0726909185
 H         10.7960417952        1.1763961890       -0.8361229334
 O         -1.4747300179       -5.6376427926       -3.4697617779
 H         -0.9159339228       -5.4094517458       -4.2445111545
 H         -0.8527113169       -5.7403115144       -2.7190016916
 O          1.9799116983        3.7401441010       -4.2636972647
 H          2.1307013738        3.1549388894       -3.4750930887
 H          1.2040247529        3.4043289822       -4.7349190924
 O          9.6433257697        3.8589326738        0.6832083532
 H          9.0523954063        4.5432535920        0.3337141404
 H          9.9996648333        3.3617414962       -0.0673393104
 O         -5.8413569145       -0.6049128307       -0.0789454049
 H         -6.7846769634       -0.4067302759        0.0705513757
 H         -5.7581890985       -0.8058481519       -1.0318525417
 O         -2.4250469900       -6.2473848682        0.2754748465
 H         -2.8156271172       -6.6489539892        1.0548206841
 H         -1.6159825482       -6.7762329783        0.0898724261
 O          8.1832362954       -0.2496168735       -1.0833505712
 H          8.7122443560        0.5547125931       -0.9589981740
 H          8.7908726122       -0.8954591286       -1.4986959281
 O          9.7209310952       -0.9972612271        4.1710794648
 H         10.5821945440       -0.8693681440        4.5677341042
 H          9.0860372013       -0.4320247337        4.6448042028
 O         -8.3828717645        0.1346850327       -0.1993231324
 H         -9.2741421845       -0.0413065412        0.1324460939
 H         -8.3966392757       -0.0981486796       -1.1484783731
 O         -2.5813765532        3.8812457308       -6.8575928195
 H         -3.2020095290        3.1695003311       -6.5659974417
 H         -2.6700070906        3.9229504656       -7.8093161230
 O          0.1059953871       -4.9212632005       -5.5055363338
 H          0.3229324566       -3.9686404438       -5.5823356083
 H          0.9385149589       -5.3609351281       -5.2780476818
 O         -7.4972462272        2.5843943225       -2.6166062761
 H         -6.8451907342        2.2232574476       -1.9715908995
 H         -7.2958778865        2.1591845058       -3.4680703617
 O         -2.6951576721        4.2279922987        3.2636160275
 H         -2.6761225746        4.5162098166        2.3267970178
 H         -3.5850256707        4.4915856055        3.5793417240
 O         -3.9630452296       -0.8214778046        5.9810610331
 H         -4.8435799985       -0.7466863392        6.3598011328
 H         -4.0700377210       -0.6300896816        5.0131703906
 O          0.4223270872       -4.3933722009        4.9020261970
 H          1.2231413434       -3.9413637114        5.2195060497
 H         -0.2294282146       -4.2129078647        5.6170760057
 O         -8.9481896550       -0.1106145184        4.1074436829
 H         -9.3271952012        0.7568946677        3.8381680945
 H         -9.5441798803       -0.7789509798        3.7523427798
 O         -2.7555717691        1.8910806299        4.5906585314
 H         -2.7741756709        2.6063036341        3.9222181998
 H         -3.3681968108        1.2272049816        4.2569412117
 O         -7.8176192186        4.4168579859       -0.5614450363
 H         -7.7848518951        3.9169193208       -1.3907842788
 H         -8.5315847123        3.9997380946       -0.0575026560
 O         -6.1414138021       -2.8793557678        4.1890183625
 H         -5.9063991379       -2.7815860651        3.2495311934
 H         -7.0329722029       -3.2775159596        4.2304640715
 O          2.4539913920       -5.5943053717       -4.1090414200
 H          2.0687796957       -4.8307659167       -3.6320445087
 H          3.3655341048       -5.3249560146       -4.2900956042
 O         -5.0648622690        4.8698300097        4.3373228665
 H         -4.9143586066        4.4084648324        5.1801187758
 H         -5.9283185217        4.5621081606        3.9955615351
 O         -1.4058681951        6.9305913852        3.8515212782
 H         -0.6638544859        6.6701074766        4.4067848172
 H         -1.0381453305        7.1708764653        2.9925904017
 O         -6.3009285958       -4.5525979537       -3.1634791376
 H         -5.7787389115       -3.9618245209       -2.5828378528
 H         -6.4396223804       -5.3519574129       -2.6074330116
 O         -3.1598149812        5.4061338315       -4.6914041377
 H         -2.8852727046        5.1152583316       -5.5742135559
 H         -4.0535183972        5.0341527753       -4.5765647046
 O         -9.9699725603        1.6709467033       -2.1200415939
 H         -9.1230199691        2.1089421768       -2.3519355156
 H         -9.8202523469        0.7607136146       -2.4032786773
 O         -1.3409604178       -0.6109690950        6.6542044700
 H         -2.2863899934       -0.6520092220        6.4288633323
 H         -1.1868007855        0.3048698205        6.9275064456
 O         -3.2891848146       -0.5276649865       -5.4873654501
 H         -3.3905822342       -1.2013601544       -4.7785868620
 H         -2.6813314531       -0.9226260698       -6.1556220799
 O          2.7669005584        6.4212027113       -3.8173275689
 H          2.5231375584        6.1637941783       -4.7238995167
 H          1.9419843582        6.4753067722       -3.3263200204
 O        -10.3495005498       -2.4023341886       -1.5270473250
 H         -9.3837973727       -2.4810756408       -1.3784584263
 H        -10.4777250903       -2.7150392384       -2.4251364503
 O        -10.3808745370       -1.9979662147        2.4260411542
 H        -10.6378890677       -2.8212036503        1.9521023660
 H        -10.7618930493       -1.2956384678        1.8782450774
 O         -9.7482131187        2.2412946755        3.1445811754
 H         -9.8099816161        2.3229256420        2.1833539482
 H         -9.0551117975        2.8662851893        3.4212437814
 O         -0.1957576486       -2.1006867587        0.9217881778
 H          0.2199063153       -1.7857505660        0.0875370283
 H          0.1731178415       -1.4827901535        1.5633707395
 O          1.2400354968       -0.8048256441       -0.8903722660
 H          2.0634406691       -0.7258637402       -0.3950288373
 H          0.8547031196        0.0831861092       -0.9085673194
 O          6.2556750725       -3.2163369212       -6.1913957681
 H          6.2556867268       -2.2819529337       -5.9658763916
 H          5.6214711006       -3.6347554449       -5.6007879036
