  281
       -473.11804224
 H          0.1540358412        0.4990513640        0.6882503959
 C          0.1219348161       -0.1998128685       -0.1464350226
 H          0.4501475733        0.3117230197       -1.0573359393
 C         -1.3022190365       -0.7265310362       -0.3304174585
 H         -1.4997805612       -1.4889550021        0.4207730856
 H         -1.3854488467       -1.1955147720       -1.3108224975
 N         -2.3174569360        0.3091830981       -0.2181212711
 H         -2.0374776458        1.1351626976       -0.7319810489
 H         -2.4527491694        0.5784345833        0.7468487284
 O          1.0309616421       -1.2350580630        0.1740465711
 H          0.9095091275       -1.9501246980       -0.4899041547
 O          7.0964614143        1.3852537778        0.6308660491
 H          7.8962762003        0.9743164989        0.2438780093
 H          7.0822991759        2.2876153656        0.2261562908
 O          3.9903108785       -2.0378994213       -5.0027185243
 H          4.7563396057       -1.8209882910       -4.4550136946
 H          3.4583408814       -2.6327081405       -4.4444501218
 O          3.3649979147       -2.7788201786       -0.2843208581
 H          3.7560731825       -2.4321032759        0.5441636903
 H          3.9988331471       -3.4013666931       -0.6483119740
 O          1.6613177768        0.1637853392        6.7470446895
 H          1.9651259495        0.2683174002        7.6482759924
 H          2.3475533024       -0.3658212230        6.2724377330
 O          2.2615958873        4.8701682218       -1.5843325219
 H          1.9514129383        4.1625349951       -1.0003560879
 H          1.9487090255        4.6411613015       -2.4710299722
 O         -4.3034697113        1.2201317402        4.5460023659
 H         -5.0820263301        0.7155538074        4.2578268772
 H         -3.7215907637        0.5805675011        4.9904548543
 O          3.2855665503        2.3226100354       -4.2173874898
 H          3.1565356642        1.9849777368       -3.3094533727
 H          3.2305875804        1.5626977154       -4.8194063692
 O          4.3344681629       -5.2147207749        1.0988685448
 H          3.9267940461       -5.2499778646        1.9702753610
 H          5.0369499310       -4.5440887223        1.1279301978
 O         -3.6888022880       -3.6172434931        0.7103952240
 H         -4.5416073618       -3.9521550008        1.0447366468
 H         -3.6127392492       -2.7178124035        1.0824844595
 O          1.7286349910       -1.4593027065        2.8221491154
 H          2.6492079206       -1.6956426509        2.5494625507
 H          1.2272888569       -1.5192020504        1.9904937511
 O          5.7232916190       -0.7978920404       -0.3349948615
 H          6.2936279079       -0.0354176378       -0.1393546833
 H          4.8323922144       -0.5373344511        0.0025035254
 O         -1.2799568995        5.8542078519        0.9394955532
 H         -0.6150833825        6.1635560857        0.2656211823
 H         -2.0203750040        6.4579225062        0.8631685810
 O         -8.2793923732        2.0880299148        0.4353476326
 H         -8.3657990011        1.2144775549        0.8433232879
 H         -8.0054291471        1.9438911776       -0.4799092124
 O          3.1666335829        0.2396257591       -6.0134239611
 H          3.7124190499        0.3380271563       -6.7929796629
 H          3.4031988604       -0.6411980566       -5.6236854503
 O         -3.7395018975       -0.6912159704       -2.1674498110
 H         -4.5012822626       -0.2029651107       -2.5293518999
 H         -3.5078778478       -0.3095636264       -1.2841754096
 O         -0.4566387972        2.7582431955       -1.9104479937
 H         -0.9424302014        2.0357683440       -2.3519222561
 H          0.1421810070        3.1163768726       -2.6017826767
 O         -1.6455152401        0.6544960736       -3.2233303854
 H         -0.9094072483        0.0433834411       -3.3955460106
 H         -2.3589803851        0.1060120497       -2.8292000352
 O          3.2928799239       -5.6451337310       -1.3426640193
 H          2.3643762515       -5.8989382651       -1.2848705996
 H          3.6052523938       -5.5992715003       -0.4148924244
 O          2.7566178234       -4.7877325858        3.5101890045
 H          3.5582663947       -4.4515298339        3.9414885433
 H          2.0192262751       -4.4186763418        4.0327701694
 O          2.4140288756        5.0375221437        1.7116335916
 H          1.9963235716        4.3114867600        1.2238379147
 H          3.1715264073        5.3144550283        1.1692724419
 O          0.5222688942       -0.9514146487       -3.6891155029
 H          1.3416986073       -0.9489346013       -3.1596089243
 H          0.4726636066       -1.8313862600       -4.1185441600
 O         -1.6758131835       -4.6871377991        3.7452820362
 H         -2.4338372539       -4.0685036952        3.9422569739
 H         -1.7510493919       -5.4072355678        4.3707862969
 O         -2.7052725313        3.7360782242       -4.1831524505
 H         -2.4041526267        4.4802876042       -3.6278013551
 H         -1.9261334529        3.4656698820       -4.6946904713
 O          0.5311025318       -3.0694954534       -1.7278910349
 H         -0.2903437515       -2.9029415635       -2.2244085280
 H          0.4352783361       -3.9664278979       -1.3450275681
 O         -1.4773837258       -0.2440966022        2.9129989594
 H         -1.0107984152        0.5735245339        2.6318341623
 H         -0.9857645145       -1.0156336049        2.5892331329
 O         -6.1139264932        3.2792887190        1.4087296897
 H         -6.9824910401        2.8625821119        1.2193854687
 H         -5.4802826239        2.5563557098        1.5956065505
 O          7.1931465385       -2.8184039205        3.1804293493
 H          7.0410859115       -1.8651432730        3.0598569491
 H          7.0806334089       -3.1910966571        2.2943812941
 O          7.4194028608        0.2833207025       -3.0863305574
 H          6.8481251855       -0.4961631646       -3.1327361178
 H          6.8234890194        1.0334734380       -2.9078008613
 O         -3.8371400393        5.7066700938       -0.4433519314
 H         -3.9490702921        5.4811592218        0.4965012124
 H         -4.6241646299        5.3690884148       -0.8860504965
 O         -7.0206474991       -0.7370874900       -1.0490774714
 H         -6.2462791374       -0.1671766563       -0.8162538453
 H         -7.4918605136       -0.2497172562       -1.7287966342
 O          1.3183100876        2.8690895688        0.1481886401
 H          0.9862541017        2.4921153730        0.9855762028
 H          0.5721584165        2.7999314596       -0.4799706867
 O         -3.5862916487       -2.9448266797        4.1374125614
 H         -3.6651394365       -2.4596813347        3.2823497266
 H         -3.2658532127       -2.2446227877        4.7538070260
 O         -5.8699236055        3.9275808422       -1.1998375521
 H         -6.4743852264        3.3078624796       -1.6365711975
 H         -5.9652895845        3.7357182199       -0.2402659463
 O         -8.1391404551       -0.5294377054        1.3530016023
 H         -8.6492689396       -1.2972107227        1.6112202823
 H         -7.7313466070       -0.7280587905        0.4785242539
 O          1.5242605381       -4.0659570473        1.1965141231
 H          1.9994252455       -4.3731889956        1.9903131965
 H          2.1698416224       -3.5794788943        0.6433768207
 O         -6.0573501046       -0.3715893117        3.1433153997
 H         -6.7949721177       -0.2228923532        2.5305086821
 H         -6.2310929445       -1.2603694858        3.5317378338
 O          2.1569946326        1.2023907939        2.7569637122
 H          1.8506180225        0.2797511081        2.8215472265
 H          1.7950919040        1.6795973255        3.5280615123
 O          4.1910692464       -2.1474269257        2.1814004529
 H          4.4483738969       -2.7472582602        2.9104164493
 H          4.8656792350       -1.4393926139        2.1714096358
 O          4.5376635116        4.8199951147       -0.0350031100
 H          3.9297971265        4.9131287227       -0.7836204031
 H          4.4062005052        3.9169164437        0.3239185127
 O          0.6245780255       -3.3310957102       -5.0070539998
 H          0.0994290627       -4.0740739595       -4.6513682934
 H          1.5337770376       -3.5449872034       -4.7552714568
 O         -3.9643099619        1.7161061040        1.9345537863
 H         -3.3425817589        2.4183027095        1.6731501628
 H         -3.9321211552        1.6014539847        2.9043417238
 O         -3.2373591507        3.8267293190        4.4256643490
 H         -3.5916008342        4.2404675901        3.6233358284
 H         -3.7131207752        2.9975623294        4.5713287016
 O         -3.5398494451        2.7524761905       -1.7335576048
 H         -4.3453806297        3.3003341973       -1.6164624339
 H         -3.2279695644        2.9392175156       -2.6362878768
 O          3.1247591789        1.6605661636       -1.6019766973
 H          2.9901902446        0.6920669994       -1.6301254962
 H          2.6073977805        2.0126339448       -0.8601061881
 O         -2.2522090276        3.3523083323        0.6352583782
 H         -2.6358861860        3.2351623151       -0.2530880902
 H         -1.9598056345        4.2818192036        0.7257832653
 O          5.5827525781        2.2614071987       -2.5466794636
 H          4.8232199402        2.0172198199       -1.9813937361
 H          5.1807212044        2.5991577272       -3.3553543193
 O          0.2666256613        6.6564328203       -1.0085643800
 H         -0.3671160710        6.3215156320       -1.6676762790
 H          1.0956716788        6.1688559008       -1.1613192758
 O         -7.4367724873        1.8954725784       -2.3735967478
 H         -6.7389616551        1.3932433103       -2.8535899299
 H         -8.0244498901        2.2503637955       -3.0405696473
 O         -2.8390754375       -1.5654596311       -5.2097040133
 H         -3.0663018509       -0.6330096007       -5.3028954208
 H         -2.1714343636       -1.7429765513       -5.9131419126
 O          0.2327685529        5.8587020706        3.2073334263
 H         -0.3880536091        5.9332274175        2.4603218820
 H          1.0979684962        5.7250278017        2.7932970638
 O          5.7005629792       -4.4457775418       -2.0417957186
 H          6.2856135572       -4.9957138595       -2.5625729997
 H          4.8972698896       -4.9697380000       -1.8860476698
 O         -4.4282949124        5.1535595265        2.2268190008
 H         -5.1396585502        4.5213892967        1.9921944401
 H         -4.8464320481        5.8922501197        2.6691858259
 O          0.4686469720        0.4891020515       -5.9133012939
 H          1.4161590278        0.4966580584       -6.1307047233
 H          0.4374956144        0.0364851358       -5.0389402600
 O          2.6786233183       -3.6619044653       -3.2404242960
 H          2.9889775941       -4.4439038894       -2.7688194205
 H          1.9469394062       -3.3159972215       -2.6837852057
 O         -1.7726085673       -5.5570649721        0.9445387061
 H         -2.4433086918       -4.8766401180        0.7598456136
 H         -1.5991258618       -5.4955567159        1.8907743333
 O         -0.6069209345       -5.2957218747       -3.5716386097
 H         -0.2457983780       -5.6164163501       -2.7394172605
 H         -1.2374819855       -4.5872601226       -3.3442673843
 O         -1.7336784815        5.2049116168       -2.1496523809
 H         -2.4595708659        5.4179749105       -1.5349499111
 H         -1.3549827660        4.3503755960       -1.8677714382
 O         -0.5929676212        2.9179034795       -5.8019459960
 H         -0.7661512406        3.1540756658       -6.7125880993
 H         -0.2537489371        1.9888497256       -5.8158223140
 O         -0.4266745195        2.0655484400        2.0877111932
 H         -0.4240594468        2.6108476122        2.9134984706
 H         -1.0936629470        2.4942027790        1.5162685815
 O          0.6677144653       -3.3382688887        4.5185763774
 H          0.8780496614       -2.6508491336        3.8549980201
 H         -0.1337668457       -3.7893236869        4.2037154004
 O         -5.4160967839       -2.1527624470       -4.4169992559
 H         -4.5340449601       -2.0683269803       -4.8215510399
 H         -5.2991707786       -2.7617528066       -3.6818569502
 O          3.4081656346       -1.1683805890        5.2369447214
 H          2.7638201396       -1.4294969938        4.5668066661
 H          3.8820468282       -0.3957807121        4.8610751754
 O         -0.6863667285       -2.7168583438        1.9736295652
 H         -1.2631429266       -3.3786303036        2.3597666279
 H          0.0718523379       -3.2070809124        1.6016968897
 O          4.4317833851        0.9843282215        4.0218450210
 H          3.6296804248        1.0752045511        3.4294607492
 H          4.5932559333        1.8748503391        4.3447553769
 O         -5.6616616648        0.4098405703       -3.6912197038
 H         -4.9581829741        0.7888890639       -4.2616219152
 H         -5.7738189711       -0.5132255084       -4.0120824254
 O          6.1904298737       -0.3560089511        2.5597116616
 H          5.6510780928        0.1937666291        3.1609941186
 H          6.6114161644        0.2524758876        1.9340290316
 O          4.3650237255        2.4586111999        1.2720718856
 H          5.2776184039        2.1525497310        1.2786063438
 H          4.1611262572        2.8135090931        2.1599053903
 O         -0.3799955487       -1.7229979195        6.5140951085
 H          0.0342392954       -2.3566261099        5.9014754247
 H          0.2632927069       -1.0079673993        6.6361823561
 O          1.1010626618        3.7783186752       -3.8384194556
 H          0.5052221492        3.6890448265       -4.5972401042
 H          1.9192611699        3.2910890016       -4.0823027504
 O          5.4898244280       -1.7309344728       -2.7480644592
 H          5.5929336852       -1.3342104053       -1.8439891591
 H          5.5904766795       -2.6836923205       -2.6077042132
 O         -4.2744167866       -3.2333136937       -1.8592700813
 H         -3.9827240161       -3.4432612624       -0.9454333404
 H         -4.1721952968       -2.2512512833       -1.9364568226
 O         -6.3270009336       -2.9257532210        3.8466150495
 H         -6.3793435286       -3.3921725079        2.9973535812
 H         -5.4220896576       -3.0814025856        4.1673499663
 O          0.3995504889       -5.5418008994       -0.6820873288
 H         -0.4700019445       -5.7285305785       -0.2818497390
 H          0.8919495669       -5.1583640777        0.0777853897
 O          4.9362862927       -3.4205661987        4.4152010513
 H          4.6755653208       -2.6935377847        4.9980647720
 H          5.8765938551       -3.2817217905        4.1480844508
 O          8.9568946195        0.2104486275       -0.8945219143
 H          8.4309003608        0.1867592697       -1.7288970848
 H          9.7592837383        0.6881047521       -1.1028885409
 O         -5.1567407587        0.9575662815       -0.3758815916
 H         -4.7397313811        0.9599007667        0.4967722436
 H         -4.5850968578        1.5078853529       -0.9336966538
 O          3.6907006493        3.6484450690        3.6685663647
 H          2.9919740493        3.3424549347        4.2663651601
 H          3.2585103647        4.3165202046        3.1047477569
 O          3.4538905761       -0.0358930466        0.6412683080
 H          2.5472738097       -0.3443107184        0.5087670863
 H          3.4459537307        0.8741414875        0.9759283928
 O         -0.7799474543       -1.8098773325       -6.8635263248
 H         -0.2404438184       -2.4584781852       -6.3859506704
 H         -0.3569813564       -0.9487042357       -6.7068871994
 O         -3.5078101679        1.2546692611       -5.0597817661
 H         -2.7562565415        1.1245210100       -4.4388804985
 H         -3.5749490831        2.2105271749       -5.1462629831
 O         -3.8073958785       -1.3039078730        2.0386787560
 H         -4.6153832183       -0.8339396186        2.3354612158
 H         -3.0426043096       -0.7601803804        2.3031255197
 O          1.6276498024        2.3944050098        5.0943085226
 H          0.7672057138        2.8422277836        4.9814579666
 H          1.5115889877        1.6893578442        5.7500700417
 O          6.9706357450        3.6947470827       -0.6622569000
 H          6.2725493421        4.3072222990       -0.3724206221
 H          6.6242175961        3.2860635318       -1.4731922207
 O         -1.8591931772       -2.9447691395       -3.0543581766
 H         -2.1166265734       -2.4162880766       -3.8330664143
 H         -2.7023239661       -3.1741146665       -2.6212959792
 O         -0.5845702139        3.5736008903        4.2267975804
 H         -0.2747251054        4.4678544601        3.9362788711
 H         -1.5397683590        3.6754056182        4.4193514056
 O         -6.2330747986       -4.2846435377        1.3999868374
 H         -6.5456861658       -3.9507901971        0.5123025536
 H         -6.5001030838       -5.2024644736        1.4464456487
 O          2.8483808548       -0.9357251202       -2.2123953241
 H          2.8463059945       -1.5413637350       -1.4452847214
 H          3.6804131902       -1.1372686973       -2.6672121543
 O         -6.8297866515       -3.4624175313       -1.0053555956
 H         -7.0123313592       -2.5095341909       -1.0473874907
 H         -5.9563097592       -3.5541644108       -1.4361875323
 O         -2.5621493436       -0.7929976920        5.2996820437
 H         -2.0961659062       -0.5308252940        4.4794916543
 H         -1.8483922833       -1.0905185097        5.9032615396
 O          6.2931601447       -3.3110884830        0.5397787964
 H          6.4667602159       -3.7413895877       -0.3038991065
 H          6.1546621448       -2.3634584756        0.3287568703
