  386
       -651.41224728
 H          0.0451177838        0.3779368254       -1.5962634338
 C          0.7310617967       -0.1098582412       -0.9090937372
 H          1.2028901618       -0.9476112313       -1.4240967730
 C         -0.0752184881       -0.6157355734        0.2795927439
 H         -0.1079500712        0.1610381991        1.0432112636
 H          0.3847887715       -1.5066612298        0.6975599507
 N         -1.4390958541       -0.8756082848       -0.1695707963
 H         -1.4109946287       -1.4224671214       -1.0263116248
 H         -1.9172604539       -1.4209680422        0.5319956978
 O          1.6935735621        0.8635610107       -0.5610066802
 H          2.3562587296        0.4410811786        0.0359074677
 O         -2.7206558294        1.1373130476       -2.5204007917
 H         -1.7884846023        1.3291874983       -2.7219316803
 H         -2.8040162533        0.2402876251       -2.1677512737
 O          4.7467076957        2.8747428458       -5.4092522797
 H          5.2788134266        2.1542859784       -5.8028841061
 H          4.8760039311        2.7515353692       -4.4348921206
 O          3.4321657864       -0.5761493726        0.7945597879
 H          3.0992569276       -1.4824778675        0.7435179451
 H          3.6067962093       -0.4198936581        1.7387265568
 O         -2.3358200741        1.4899419862        0.3009307846
 H         -2.3054808452        1.3406755537        1.2692629785
 H         -2.0668878218        0.5811328714       -0.0485699269
 O         -5.2988888802        6.1047484487       -1.0738336112
 H         -4.4633517786        6.6043184024       -1.2067940802
 H         -5.2937008837        5.8517080448       -0.1311254096
 O          4.2374400774       -2.7813313560       -1.1513255906
 H          4.4232868471       -3.5861207199       -1.6747638940
 H          3.5238837011       -3.0074143573       -0.5279746979
 O         -1.4214291326        0.3405724918       -6.1675621077
 H         -0.9739039255        1.1812598641       -6.3397830968
 H         -2.2998092804        0.6053606571       -5.8160166941
 O          2.9514485873       -1.6204903224       -3.2073188533
 H          2.7943615631       -0.6609700264       -3.1343262136
 H          3.4731757966       -1.8711108930       -2.4137893988
 O          3.3441724128        3.0882915305       -0.4557247477
 H          2.9584540637        3.2879145084       -1.3220861487
 H          2.5878846235        2.9035560773        0.1396485592
 O          3.6512471106       -0.5860401932        3.5227006978
 H          4.3846226479       -1.1987700964        3.6857805132
 H          3.7235504941        0.1006952618        4.2154632966
 O         -0.5833840921       -3.8053359860        0.0764763917
 H         -0.4101171619       -4.7581079869       -0.0235108972
 H         -1.2641956226       -3.5916042202       -0.5773159882
 O         -1.3048104132        2.4288744249        4.7679224831
 H         -1.4831450597        3.3292639698        4.4238268845
 H         -2.0514132493        2.2042527492        5.3674347848
 O         -1.8594690714        4.7489206722        3.5634936096
 H         -2.1481416076        4.4509918448        2.6747923109
 H         -1.1524479751        5.3949027695        3.4088205329
 O          0.2365291497       -0.5392933219       -4.2631384745
 H         -0.3950054029       -0.2676413355       -4.9671752295
 H          0.9014738643       -1.0973092162       -4.7144199718
 O         -7.7855012602       -2.2515450821        2.8258327830
 H         -7.3370847592       -2.1056943239        1.9638323382
 H         -7.4820784964       -1.4802775755        3.3410479732
 O          1.2530510526       -3.4587522539       -2.1140204395
 H          1.8232645976       -2.9019048733       -2.6724181348
 H          0.3356013542       -3.1720290800       -2.2983501835
 O          6.0073041079       -1.8107933856        0.6620240519
 H          5.4801210844       -2.0193207165       -0.1312855419
 H          5.4419395489       -2.1304198345        1.3914770585
 O         -2.3436628673       -3.2087121822        1.9324550038
 H         -2.8783184076       -4.0182307858        1.9549605828
 H         -1.5967047356       -3.4203350982        1.3224520429
 O         -1.1573758305       -1.5169826365        3.6344856348
 H         -0.2053621064       -1.6351304071        3.4617045262
 H         -1.6100685016       -2.2275637885        3.1467488562
 O         -1.8602869653       -5.5146005385       -2.5868045687
 H         -2.5832292464       -6.0145231447       -2.9662535373
 H         -2.2737577558       -4.7486207283       -2.1255790809
 O          2.7589666903        1.1079050134       -2.9463766630
 H          3.6869565336        1.3822665217       -2.7950126672
 H          2.3685491624        1.0641706158       -2.0403956419
 O          4.2107199032       -3.0533439840        2.1900480560
 H          4.1075005761       -3.2419924646        3.1402379908
 H          4.0623957562       -3.8936793749        1.7339569337
 O          1.4003191887       -1.6924243263        2.8865436747
 H          1.6546848111       -2.2454736901        2.1380129934
 H          2.2365099541       -1.4583110506        3.3405079776
 O         -3.9307971593       -3.3276048692        4.2930064795
 H         -4.1575581769       -3.6202529873        5.1764469323
 H         -4.6312140897       -3.6565302891        3.6991205409
 O         -2.6413082904        4.1247683459        1.0634400828
 H         -2.0040635634        4.7432196219        0.6447333908
 H         -2.5214584436        3.2505274166        0.6713938256
 O          1.2539690778        1.0163427153        2.6996878056
 H          1.2674347863        0.0424901051        2.7070690344
 H          1.2144993643        1.2964072384        3.6378276450
 O          4.2072097307        5.3459091302        0.5669303575
 H          4.9501233962        5.1013958062        1.1537872501
 H          3.9097518722        4.4755038987        0.1924703616
 O         -1.0364978556       -2.2487066726       -2.6636086359
 H         -0.5920290962       -1.5940800702       -3.2425133258
 H         -1.8248003989       -2.5535291761       -3.1491968302
 O          2.0666963666       -3.0678979625        0.4462552129
 H          1.7942332410       -3.7741412329        1.0629994280
 H          1.4949338787       -3.1706689317       -0.3384510229
 O         -3.9277397459       -1.0372361884        1.4530590191
 H         -4.8683890046       -1.2860350415        1.3796056155
 H         -3.4510674230       -1.8305790999        1.7487017936
 O          5.0197651878        2.5069792988       -2.8243142023
 H          5.1348785003        3.3675374566       -2.3733422118
 H          5.8847674918        2.0590821260       -2.7743838711
 O          1.6753068088       -2.1570773551       -5.8251830290
 H          2.3370433097       -1.6057192124       -6.2798008598
 H          2.1592668562       -2.8226535393       -5.3081293814
 O          9.2111651678       -1.2430654919        3.4030983513
 H         10.1087886316       -1.5318085431        3.5661419940
 H          8.6632276408       -2.0483440596        3.4038778018
 O          3.8951625078        5.2043531403       -4.1023677743
 H          4.2987851307        4.6559602070       -4.7876619946
 H          4.5658934366        5.3165601576       -3.4058682605
 O          6.0152506978        4.0501299842        2.0526523406
 H          6.0153888005        3.3524841826        1.3490923354
 H          6.9658100916        4.1939179121        2.2592429102
 O         -3.0992482606       -2.9037485896       -4.2353655088
 H         -2.5695437676       -2.8367229964       -5.0443020785
 H         -3.7613724810       -2.1769809399       -4.2632616174
 O         -6.0048690210       -4.2939977086        2.7793212861
 H         -6.6657522332       -3.6346628921        3.0660820077
 H         -6.3279192670       -4.5460328692        1.8945424793
 O         -1.3835245257       -0.9450477360        6.2945607199
 H         -1.8730484278       -0.1303975955        6.4267335888
 H         -1.4717360163       -1.1828964798        5.3523713399
 O          4.6312304990       -4.8680804289       -2.7777672932
 H          3.9298872392       -4.6921478131       -3.4314558531
 H          5.4466411104       -4.4703734713       -3.1775956859
 O         -6.4741187022       -0.0343691325        3.6002373980
 H         -5.6734708281       -0.2650432800        4.1136820220
 H         -6.1017696396        0.4090568988        2.8131352903
 O          5.9522222585       -5.5362742840       -0.2818602081
 H          5.5998221882       -5.4481125814       -1.1749538907
 H          5.1934017602       -5.6371138820        0.3073827043
 O         -3.4842207051        1.5875211397        6.0332672813
 H         -3.7083227457        0.7211056826        5.6523164358
 H         -4.1149440357        2.1962234941        5.6108835113
 O          2.5898916309       -4.4665780321       -4.5898205544
 H          2.7707858244       -5.0318786716       -5.3409325026
 H          1.6315736435       -4.5905422847       -4.3884221372
 O          4.9867781090       -0.0039729314       -1.4777377003
 H          5.9161105808       -0.1112006913       -1.2286828912
 H          4.4679788113       -0.2145521673       -0.6862771853
 O         -3.9200693343       -1.1128004769       -1.2964039285
 H         -4.7810669175       -0.8275884766       -1.6178819435
 H         -3.8937678852       -0.9401789450       -0.3345674007
 O          6.0503703018        0.6462990246        2.4649838582
 H          5.1907038970        1.1198067797        2.4898774961
 H          5.9458514343       -0.1765859924        2.9682579122
 O         -3.6997455044       -5.5673136818        1.7223797108
 H         -4.4998602268       -5.4191661582        2.2392401702
 H         -3.9813666481       -5.7793117795        0.8191170546
 O         -0.5554281415        3.0855573130       -0.9198810218
 H         -1.1974935261        2.4424048998       -0.5520960125
 H         -0.1725469392        2.6660495136       -1.7072066037
 O          1.1262915569       -3.6281198089        4.8976933959
 H          1.1172720395       -2.6834939024        5.1191637149
 H          0.2077961384       -3.9439281466        4.9827693229
 O          9.1431589675        2.4688755639        0.4030047681
 H          9.9825566414        2.3336299305       -0.0353369774
 H          8.8015511590        1.5824146874        0.6527450212
 O         -4.9293103583        1.4958145295        2.0159513680
 H         -4.9959433369        1.8494495646        1.1131953275
 H         -4.2137344814        0.8435903484        1.9909012226
 O          1.2667970009        1.8527186551        5.2240576112
 H          0.3190240656        2.0966505024        5.2233583944
 H          1.7614037019        2.6950722251        5.1413271267
 O          2.3686608529       -5.7271132731       -1.2822209747
 H          3.1285925175       -5.8598814533       -1.8570876847
 H          1.9424662610       -4.9019483902       -1.6083138209
 O          1.3376771955       -4.7455648370        2.4371978178
 H          0.5045048745       -5.2320506438        2.3506272256
 H          1.3006498844       -4.2927397439        3.3045696039
 O         -0.0461907651       -4.7520551495       -4.4979503294
 H         -0.6421819014       -5.0042296378       -3.7722202969
 H         -0.5043191711       -4.0775187695       -5.0089590918
 O          5.9058703967        2.2519597499        0.1049568698
 H          5.8764743376        1.4317179421        0.6047463916
 H          5.0023441881        2.3929185201       -0.2236168043
 O         -4.0103256642       -0.5809260682        4.4686581540
 H         -3.8521155263       -1.5372622211        4.3999016047
 H         -3.4590429472       -0.1567056165        3.7818104688
 O         -4.4498812047        3.9495330292       -2.4062270303
 H         -3.5000728693        4.1155371364       -2.5560907742
 H         -4.7948934209        4.7718550733       -1.9920012419
 O         -5.0039928602       -1.0254091838       -4.3386576423
 H         -4.5421412277       -0.2710177334       -4.7748667402
 H         -5.4287938844       -0.6073251858       -3.5685786016
 O         -4.8186138131        2.0097633615       -0.6538409102
 H         -4.7317075963        2.7449559131       -1.3059297390
 H         -3.8965062637        1.7164760619       -0.5176417788
 O         -7.8789511153        2.2518586958        3.7408621254
 H         -7.4271720367        1.3902275172        3.8529995877
 H         -8.7494057993        2.0115365264        3.3892065117
 O          8.3160848925        0.0215380987        1.1350386213
 H          7.4097910913        0.1619132665        1.4664405706
 H          8.7616879540       -0.4542505143        1.8556812088
 O         -0.0490954146        2.7398273212       -5.8796131584
 H          0.8792140852        2.4365226237       -5.8950817277
 H         -0.0314118271        3.6802557012       -5.6544188296
 O          5.7190507686       -5.3522046038        3.6444149776
 H          5.2335374568       -5.6742402796        2.8801264677
 H          5.0782472267       -4.8652412339        4.1905664452
 O          3.5696266752       -5.5767672195        1.1779329136
 H          3.1211330209       -5.6708067650        0.3136964725
 H          2.8353683956       -5.5169750895        1.8146252831
 O         -0.1969425705        1.8733789959       -3.3067293392
 H         -0.3293830346        2.3358217380       -4.1541489266
 H          0.1830530919        1.0104768393       -3.5578370968
 O         -1.3722281362       -4.6033495723        4.5269836083
 H         -2.1579998426       -4.0761211988        4.3268034126
 H         -1.2625588987       -5.2319223630        3.8052606143
 O         -1.1062345477       -2.4640689392       -6.1468878397
 H         -0.1358659911       -2.4484548074       -6.1699447047
 H         -1.3668465358       -1.5624519889       -6.3828341684
 O          3.9075333555       -1.5142601115        6.3991527380
 H          2.9383488130       -1.4287510471        6.3712339257
 H          4.2258232894       -0.6166317627        6.2339686272
 O         -6.3937871231       -1.5671841042        0.6951560542
 H         -6.7872995392       -0.6932468280        0.4865817747
 H         -6.2550454714       -2.0501076726       -0.1347943447
 O          0.1335939585        6.5418550778        2.8847409899
 H          0.3343021923        7.3320243712        3.3840107330
 H          0.9815951928        6.0495081713        2.7637575347
 O         -8.0504859215       -1.5905669978       -2.5386783918
 H         -7.5197706629       -0.7791880318       -2.4458945398
 H         -8.8342470058       -1.4689271123       -1.9774247110
 O          0.2434219573        4.9934600049       -4.3360113219
 H          0.5686396637        5.8894847679       -4.4213914996
 H          0.8773058478        4.5270654983       -3.7442452812
 O         -0.2137759901       -6.4284921038       -0.5617187765
 H         -0.7587656899       -6.2765223325       -1.3529444478
 H          0.7115204906       -6.4091789194       -0.8486415773
 O          1.5202535890        5.6686237579       -0.8420972328
 H          1.6356278598        4.9794483264       -1.5084734931
 H          2.3848171866        5.8419214184       -0.4610457578
 O         -1.8851686995        4.7053386935       -2.6204248852
 H         -1.4008220074        4.2229077741       -1.9208965367
 H         -1.2565066035        4.8188656075       -3.3500335467
 O          2.8715373220        3.9686369737        4.8642038379
 H          3.8311419578        3.8596459617        4.8843930266
 H          2.6657327179        4.4626544602        4.0503271998
 O        -10.1575716643       -1.5146704824        1.7135041358
 H         -9.3754421884       -1.8843129977        2.1709201713
 H        -10.1832484607       -0.5793338024        1.9781512028
 O         -9.3104393855        1.2831781872       -1.5784911714
 H         -9.8320902392        0.4975176024       -1.3509852374
 H         -9.5981604670        2.0192573318       -1.0037836006
 O         -3.0533161647       -3.6385616954       -1.1302647073
 H         -3.4016963336       -2.7410130992       -1.3081407487
 H         -3.7785676905       -4.1801978438       -0.7966343219
 O          4.1003238611        1.1237592709        5.4996504107
 H          4.6541963190        1.8439119325        5.1324480723
 H          3.2694957387        1.5260919204        5.7684953565
 O          3.7571340461        2.0132196622        2.3129741952
 H          2.8704255177        1.6202616048        2.4216531117
 H          3.6936391638        2.9430623204        2.5305025308
 O          2.4293516963        1.6880945751       -5.5671823998
 H          3.2554186753        2.2427170384       -5.5915471507
 H          2.4032901675        1.3310484887       -4.6610603444
 O          7.6973442024       -0.5420279892       -1.4335361838
 H          7.9583158567       -0.4017472339       -0.5050923863
 H          8.0500856135       -1.4080222393       -1.6887505796
 O          6.6765662858       -3.5176580153       -3.7114579750
 H          7.4127491672       -3.4166123702       -3.0878115764
 H          6.3194102604       -2.6183431216       -3.8439762503
 O         -2.7891320940        6.9746125425       -1.3946799041
 H         -2.4974526656        6.2639913841       -1.9935799148
 H         -2.2046248473        6.8779267619       -0.6285128287
 O         -6.1551983714        0.3901443877       -2.2654762841
 H         -6.6063783713        1.0790668424       -2.8027785638
 H         -5.6502684158        0.9360992363       -1.6111086579
 O         -7.3573207605        4.2750743876       -1.4237569841
 H         -6.8218981275        5.0743817691       -1.5199792762
 H         -7.0017413424        3.8251700382       -0.6486083266
 O          7.6760787692       -3.5472981132        3.1767566826
 H          7.8105730523       -3.6539098427        2.2106750161
 H          7.0892064172       -4.2910598188        3.4268365553
 O         -6.2005838644       -3.1180154333       -1.4670789706
 H         -5.6798115410       -3.6169346845       -2.1317636747
 H         -6.9108487660       -2.6491776963       -1.9612287046
 O         -4.9645877825       -4.6321535066       -3.3235793181
 H         -4.1831343763       -4.1268624838       -3.6242981707
 H         -5.6806528829       -4.3367659794       -3.9212111546
 O         -1.0234294121       -6.1826961363        2.0915824671
 H         -0.7208564783       -6.5204690395        1.2363073127
 H         -1.9818894796       -6.0798002934        1.9962953545
 O         -0.8882737982        5.9929609144        0.3721276221
 H         -0.0698914658        5.8300317671       -0.1312954104
 H         -0.6004139509        6.3148348072        1.2390271242
 O          3.2840138225       -0.3237173300       -7.0444143395
 H          3.0162462216       -0.1648352720       -7.9490615305
 H          2.9221185788        0.4310779930       -6.5097045013
 O        -10.2153018204       -1.2169593770       -0.8773704470
 H        -10.1407689604       -1.3631685683        0.1081639151
 H        -11.0570467003       -1.5914395851       -1.1345661819
 O          1.1688301410        3.1593409304        1.0906992463
 H          1.0240386773        2.3320687144        1.5769321647
 H          0.5148967281        3.2030693973        0.3616476974
 O          2.1109922824        3.7741797056       -2.8466938368
 H          2.8145940379        4.2790780119       -3.3367764780
 H          2.1907012264        2.8338697133       -3.0935960592
 O          1.2677393957       -0.9350934102        5.8232906327
 H          0.3663935259       -0.9987272662        6.1952537816
 H          1.3643639635       -0.0026255015        5.5857894028
 O          2.3047245666        5.0900046677        2.4514568902
 H          1.8153064126        4.3870524484        1.9621428888
 H          3.0013173336        5.3859110598        1.8284568688
 O         -2.2059523883        0.7905882439        2.8742447168
 H         -1.8368406418        1.4420488469        3.5099236564
 H         -1.6968713304       -0.0334388882        3.0233196771
 O          7.9805568393        1.5668707529        4.0780042491
 H          7.2519241409        1.3024230631        3.4732488105
 H          8.5503785485        0.7954451101        4.1277094197
 O          8.6926545528       -3.0653065838       -1.8639631037
 H          9.5659446880       -3.4269263868       -2.0052572626
 H          8.3978974307       -3.3623576997       -0.9585796660
 O          6.0560619924       -1.6197348234        4.0588844317
 H          6.6051243327       -2.3443030996        3.6868579101
 H          6.0838895098       -1.7026225287        5.0127577362
 O          7.8947959465        3.8351303499       -1.7055551253
 H          7.8381129393        3.0877833002       -2.3162098077
 H          8.1213402414        3.4440994622       -0.8475440610
 O         -4.4954334137        5.5387393270        3.9070308197
 H         -3.5269413062        5.4659749710        3.8994457772
 H         -4.7948950625        4.6681082487        4.2244997596
 O         -9.5766187844        3.3687700019        0.1521334633
 H         -8.7106093793        3.3911976364        0.6129606574
 H         -9.5369338315        4.1065827719       -0.4612004279
 O         -7.5241394221        0.7844256050        0.3518193173
 H         -7.1051018578        1.6266097298        0.6109495044
 H         -7.9780490345        0.9419583187       -0.5008487236
 O         -4.8068548675       -5.8302835596       -0.8016567583
 H         -5.7048375138       -5.7714652622       -0.4503495235
 H         -4.8780175981       -5.6464080719       -1.7511130574
 O          5.8308541944        0.5048567088       -6.0743861167
 H          5.1273458089        0.1463993321       -6.6317677982
 H          5.7957426564       -0.0528799756       -5.2707021233
 O         -7.1065830250        3.2409325428        1.3229358173
 H         -6.3753285336        3.9023758969        1.3881931711
 H         -7.3202094167        2.9884420695        2.2456195950
 O          7.7523939860       -3.6990072305        0.4884974665
 H          7.1722567062       -4.4521581205        0.2529401188
 H          7.1330402738       -2.9102068807        0.5411781100
 O         -3.6698482320        1.1237768090       -4.9885222244
 H         -3.3467954686        1.2139100819       -4.0589635019
 H         -4.2596160495        1.9026285327       -5.1188310197
 O          5.4714868712       -1.0709661768       -3.9192618661
 H          4.5598826385       -1.3983365884       -4.0275934633
 H          5.4416528509       -0.6315632945       -3.0452164078
 O         -5.3220913809        3.1767199857       -4.8704270038
 H         -6.2140648540        2.8732435921       -4.6656388780
 H         -4.9890151414        3.5458590243       -4.0286404980
 O          3.8539518256       -3.6809307563        4.7948974939
 H          4.0084126266       -2.9402862043        5.4150441956
 H          2.9107843476       -3.8853617964        4.8936602993
 O         -5.1828850308        2.9271569420        4.3260035979
 H         -4.9829873570        2.4723103423        3.4823424708
 H         -6.1408163673        2.8927552999        4.4174682140
 O          7.4736073951        1.4542507966       -3.1863088095
 H          7.4382775385        1.0784888727       -4.0682241176
 H          7.6175873945        0.7145914106       -2.5591996185
 O          8.5813516464        3.8848908652        2.6955566573
 H          8.8930580395        3.5147994067        1.8540064696
 H          8.4982284536        3.1223541353        3.2948914677
 O         -5.1369748765        4.9869283866        1.3988716025
 H         -4.2577906126        4.5999052184        1.2037743062
 H         -5.0266650333        5.3571025487        2.3062211477
 O         -7.1330292832       -4.8175400227        0.3243544709
 H         -6.8504152544       -4.1254598576       -0.3238008879
 H         -8.0768915464       -4.7179445337        0.4483308966
 O         -6.7711916090       -3.1033939013       -4.6104487762
 H         -6.1492581039       -2.3668177363       -4.7435586037
 H         -7.4972828073       -2.7182045540       -4.1065742777
 O         -9.6809740433        1.1692111666        1.9577493846
 H         -8.8754889471        0.9524928714        1.4359682123
 H        -10.0970427420        1.9003424919        1.4911121539
 O          5.5656840635        3.1556495545        4.5202977311
 H          5.6619428094        3.4625564206        3.5855237221
 H          6.4545805915        2.9025704402        4.7870541893
 O         -7.5417011690        2.3831212223       -3.3535571328
 H         -7.3988494892        3.1404249478       -2.7471247521
 H         -8.3820064837        2.0033589216       -3.0653708469
 O          5.5092509427        4.9855203038       -1.9033578413
 H          6.4476565858        4.7132350290       -1.7834112322
 H          5.1925598941        5.3083181655       -1.0466493421
