  114
       -193.40265347
 O         -0.7825455876       -4.0803534259       -0.5974160943
 H         -1.5488532617       -4.5173661222       -0.2080738172
 H         -0.0607581379       -4.1434208806        0.0679319483
 O         -1.9293748466       -1.7498471977       -0.9788516899
 H         -2.8702005244       -1.9890625112       -0.8512204887
 H         -1.4163426873       -2.5728579241       -0.8059347617
 O          0.3123819351       -3.2623537761       -3.0745904079
 H         -0.0836266265       -3.7417900772       -2.3338395456
 H          0.3152146435       -2.3254568604       -2.8191609496
 O          4.4035136224        2.6701092447        0.4565400382
 H          3.8208307587        3.4095140296        0.6939950230
 H          4.9128451425        2.9789232119       -0.3209248329
 O         -1.9871960319        1.0677266137        3.7579858895
 H         -1.3130772561        1.5853891400        4.2065556827
 H         -1.4812385313        0.5208913567        3.1087191876
 O         -4.5540221853       -2.0997475813       -0.5882505351
 H         -4.7884082018       -1.6351081807       -1.4076958285
 H         -4.6581043017       -1.4421971759        0.1329840189
 O          3.9843407997       -1.5764331578        2.0472908291
 H          4.6486808709       -0.9955122054        1.6472059507
 H          3.8735609012       -2.3121795595        1.4222234498
 O          2.9722836761        4.1292500081       -2.2846223905
 H          3.9305431843        3.9836849997       -2.2547439826
 H          2.6934339669        4.3113063317       -1.3719965288
 O         -2.0437469293       -0.9389154365       -3.5113381528
 H         -1.6799365504       -1.6090383070       -4.0927538811
 H         -1.8197901812       -1.2261532635       -2.5980859612
 O         -4.2238657677        1.7488379781       -1.2768572107
 H         -4.4218358398        1.0046436459       -1.8761186451
 H         -3.4808546847        1.4336293614       -0.7240085068
 O          2.3081066358        4.4021823029        0.4283078442
 H          1.6140969062        3.7444696041        0.6820316059
 H          1.9616810345        5.2658575022        0.6540618131
 O          1.1613801186       -4.1314751928        1.1958653263
 H          2.0481812500       -3.9047451845        0.8673200548
 H          1.0744093568       -3.7710673924        2.0899816551
 O          0.5798731945        2.4948062144        1.0633775441
 H         -0.2831317047        2.9318379407        0.8274985722
 H          0.5497875701        2.2683199560        2.0097454436
 O         -3.4229891116        2.2062126807        1.8065235212
 H         -2.9893087569        1.9201741910        2.6380087350
 H         -4.2999930352        2.5367534970        2.0155076115
 O          2.0175054624        1.8471269450       -3.1423993942
 H          2.3687379442        2.7620329997       -3.0072801152
 H          1.0541989524        1.9240743529       -3.1230411385
 O          5.5651016980        3.2378081839       -1.8909660479
 H          6.3897951513        3.6288483101       -2.1802465333
 H          5.6225449308        2.2683867840       -2.0996696588
 O          0.8177517187        1.7805967170        3.7164304364
 H          1.4426133415        2.2774625367        4.2452230456
 H          1.1790580457        0.8764692255        3.6386072933
 O         -1.9036079959       -2.6745819852        2.4751776312
 H         -2.6157289588       -2.2403012155        3.0084601601
 H         -2.3485049318       -3.2651085645        1.8438622767
 O         -3.3281064905       -4.2260497611        0.6811309950
 H         -3.9304390819       -4.8890987278        1.0203288348
 H         -3.8685664012       -3.5814048812        0.1918150660
 O         -4.6396698263       -0.1979311968        1.3071912728
 H         -3.9217544380        0.4604601003        1.2452624944
 H         -5.4437486294        0.3401250286        1.2378971353
 O          5.6507565839        0.6278141697       -2.1210226293
 H          5.6462796844        0.2588776598       -1.2251597332
 H          4.9488697138        0.1781529121       -2.6249644176
 O          1.7030912306       -0.7628446610        3.2217588982
 H          1.3500084132       -1.5816522373        3.6091564365
 H          2.5764850071       -1.0149104844        2.8573851874
 O          2.9664491609       -3.0422909054       -2.4568021135
 H          2.0653721077       -3.2853215407       -2.7532325249
 H          3.1301683493       -2.1616310013       -2.8210259203
 O         -0.6599127386       -0.3787048867        1.9601978500
 H         -1.0967206488       -1.2559353349        2.0253441870
 H          0.2343419958       -0.4980307038        2.3300921702
 O          3.5226387282       -0.4272796592       -3.4979328107
 H          2.8825085143        0.3079476655       -3.4674045556
 H          3.7031791126       -0.5946373355       -4.4242400970
 O          5.6234955585        0.2286876333        0.6790622930
 H          6.5259606152        0.2713037110        0.9996223363
 H          5.2389504300        1.1141580040        0.7981883762
 O         -2.0158654916        0.7181522097       -0.0877253234
 H         -1.9981887745       -0.1961939550       -0.4467542776
 H         -1.5628756063        0.6467974582        0.7656274717
 O          0.4263859892       -3.1290927162        3.7109907828
 H          0.3407295028       -3.7518132333        4.4331169792
 H         -0.4689066561       -3.0220028274        3.3192245518
 O         -6.1083260152        1.9960216121        0.6902670302
 H         -6.9498406453        2.3413956028        0.3934468500
 H         -5.4948065195        2.0349430699       -0.0721573513
 O         -4.5750039383       -0.4710859234       -2.8466391818
 H         -5.1357651331       -0.4842071035       -3.6226060547
 H         -3.6501907538       -0.6225250453       -3.1657375467
 O         -0.4299310977        1.8414822067       -1.9371850737
 H         -0.9748213178        1.4906808755       -1.2007524409
 H         -0.9940583710        2.5196178762       -2.3269793798
 O         -3.7079126466       -1.1976645808        3.6934865750
 H         -3.2314677607       -0.4196476158        4.0133591449
 H         -4.2105168699       -0.9002508850        2.9144440079
 O          3.5701201331       -3.4647522726        0.0690235104
 H          4.1480919274       -4.2290028445        0.0482206780
 H          3.3393112506       -3.2846920886       -0.8805679064
 O         -2.5350027212        3.6337231605       -2.1924471773
 H         -3.2527698544        3.0038829926       -1.9607783111
 H         -2.9437450558        4.3883807183       -2.6155852628
 O         -1.6205718971        3.7408424514        0.4618442376
 H         -1.8528862341        3.7774523427       -0.4795444992
 H         -2.3293559019        3.2334702532        0.8988729779
 O          0.7711392595       -0.7177165472       -2.0551064609
 H          1.4226989184       -0.5623973260       -1.3508219680
 H          0.3767608343        0.1565066787       -2.1636995746
 O          2.2064008515        0.4952709409        0.0491560111
 H          1.4791823291        1.0795908700        0.3091924061
 H          2.9655644012        1.0804164418       -0.0272251187
 O         -1.9515300019        1.7558036926       -4.6026330338
 H         -1.1651820531        2.2660243460       -4.4006611960
 H         -1.8352868540        0.9027630574       -4.1614970287
