  526
       -891.58992459
 H         -0.1308888681        0.1711540600       -0.5214322561
 O         -2.7454066032       -0.3823005378       -0.2655274389
 H         -1.9275538958       -0.8258798384       -0.0085151210
 H         -2.8785613509       -0.5568021003       -1.2043041635
 O         -0.7116641940       -0.0828695596       -3.2206796740
 H         -1.6364334988       -0.3672689980       -3.1938548474
 H         -0.1819039372       -0.8566781263       -3.4683688008
 O         -3.1670776412       -1.1645647025       -2.9503307755
 H         -4.0995003595       -0.9446109254       -2.7405944587
 H         -3.1774345323       -1.5488679010       -3.8527132697
 O         -0.6155438416        1.2921542414        2.3706188111
 H         -1.3919838322        1.6093499115        1.8697701798
 H         -0.6629362929        1.6935060203        3.2481931980
 O         -0.0173479042       -1.0462413302        0.4200072976
 H          0.5898473274       -0.6666665633        1.0918172502
 H          0.4757537950       -1.7756425509       -0.0235716460
 O         -0.3265781145        1.1184208106       -0.8120675644
 H          0.4644609060        1.5953095484       -1.2363317295
 H         -1.1017774164        1.2529052121       -1.4469520437
 O          0.7333760399       -3.2395099987        2.1427147355
 H          1.3676621930       -2.5839376574        2.4661353442
 H          1.2960482330       -3.9010729448        1.6868351401
 O         -1.4560363934       -1.4569957331        2.7810444855
 H         -0.8796909054       -1.0060684193        3.4334892893
 H         -0.9824835568       -1.4127214145        1.9362985397
 O          3.2985838199       -3.1118175295       -7.0035984603
 H          3.0479587971       -3.7677677313       -7.6528212310
 H          3.7320722120       -3.5903602379       -6.2602574478
 O         -2.4012328118        1.5936183261       -4.7973116977
 H         -2.2646643949        1.7742864892       -3.8416730414
 H         -1.7865311794        0.8834761003       -5.0511040907
 O          0.6589272231       -2.3714155479       -3.8494314268
 H          1.6188018298       -2.3574352893       -3.7208711046
 H          0.5090178643       -2.7749718592       -4.7292066592
 O          3.3883123791        4.0211868530       -0.9330655556
 H          3.6477784977        4.8208759234       -1.4448640545
 H          2.6312954326        3.6054689477       -1.3754058057
 O         -3.5533075476        0.0585074146        2.4147040640
 H         -3.5945701344        0.1315976359        1.4566838562
 H         -2.7860943991       -0.5288213708        2.6023862201
 O         -2.5168598043        2.2365947462        0.7643578806
 H         -1.9009243585        2.7887841077        0.2326527656
 H         -2.7410638727        1.4634511192        0.2296874940
 O         -0.6215545225        3.7487414905       -0.3593386527
 H         -0.8598092359        4.5572003081        0.1185126899
 H          0.0942021992        3.2941425607        0.1306333559
 O          1.2929682592        2.2621351208        0.8156021235
 H          0.6574491294        1.8127779154        1.4185330072
 H          1.9394019800        2.7369034202        1.3611807721
 O          2.1589613680       -0.9240591450        6.6659354219
 H          2.0074442681       -1.8783949274        6.8071671672
 H          1.2759730465       -0.5130073468        6.7686546359
 O         -8.4098810252        0.3928129937        2.7536697354
 H         -8.4743607989        1.2134471054        2.2523676344
 H         -7.5323740104        0.3987653632        3.1800943868
 O         -0.3678405275       -5.8006426739        2.0648899108
 H          0.3471761556       -6.2959748128        2.4991893481
 H         -1.1539982405       -6.3832700180        2.0821877708
 O         -3.3798052140        4.5988870577       -0.8778685887
 H         -2.7108052870        5.0161974790       -1.4515984750
 H         -3.0175507825        4.6957635240        0.0137872718
 O          3.3106380077       -1.1602900010        0.4018819898
 H          3.4887234369       -0.2950748580       -0.0180239834
 H          4.1562204216       -1.5458335765        0.6364570487
 O          3.0080602087       -0.1557107495       -4.3344676261
 H          2.3978058257       -0.2389717542       -5.0906713702
 H          3.2274110179        0.7793340672       -4.1672790275
 O         -5.0213367773        6.6380831491       -0.8784253186
 H         -5.2166040431        6.7517826121       -1.8243389118
 H         -4.4170721058        5.8448565407       -0.8776489798
 O          1.0614035102       -4.6059649364        4.5259579978
 H          1.3640480523       -5.4780887430        4.2380368656
 H          0.8669591747       -4.0994096092        3.7140049828
 O          5.0273580020       -2.9111544876        1.5801877838
 H          4.2788221960       -2.8555303878        2.2349632158
 H          5.5127900219       -3.7366841690        1.7908941407
 O         -1.6733542324       -3.4082340842        0.6360524674
 H         -0.8309454636       -3.4493575253        1.1114511245
 H         -1.4641028646       -3.2549989393       -0.3026279984
 O         -2.3394448418       -0.1144075513        5.5612482854
 H         -2.6161171542        0.7240464764        5.1547358964
 H         -2.7797214662       -0.8112787346        5.0332068574
 O          1.3808365946       -2.9377628721       -0.8218216305
 H          0.9098734781       -3.7974599457       -0.7253252268
 H          2.2017581279       -3.0062766022       -0.3212626542
 O         -4.0452795896        6.2761646282        3.1390935439
 H         -4.0553857379        5.4694654018        2.5814437651
 H         -4.4175727282        5.9685635363        3.9883467628
 O          2.1648785647        1.7869766766       -6.6226810351
 H          1.8870089153        2.7119217098       -6.7331945957
 H          3.1291297028        1.8002736945       -6.4551110546
 O         -0.8665657338       -0.2922301618       -5.9459228079
 H          0.0285802995       -0.6712322365       -6.0152784871
 H         -1.0617145359        0.1540773408       -6.7986890805
 O          0.1001420962       -5.2467750724       -0.5368797332
 H         -0.0815694186       -5.4708558609        0.3942408362
 H          0.3884081281       -6.0497710633       -0.9826520951
 O          1.1379027011        4.3239597475        5.8927621639
 H          1.7935609873        3.6516218360        6.1450045630
 H          1.5907913248        4.9958520946        5.3673537458
 O         -0.5904560266       -2.2219866741       -8.3229496525
 H         -0.0140290527       -1.5016178670       -8.5964713428
 H         -0.1528482420       -2.6886744038       -7.5900370579
 O         -5.6724245888       -1.0295760743        0.7094198602
 H         -4.9737109797       -1.5347805244        1.1703741173
 H         -6.5045474975       -1.3608532207        1.1008155049
 O          2.5249237124       -4.9275254383        1.1429192520
 H          3.0213023742       -5.0724335763        1.9650920077
 H          2.1778760707       -5.7955729651        0.8825222918
 O         -4.3327901216        3.9543225675        1.8087020424
 H         -4.8994870069        3.4910515701        2.4527252598
 H         -3.7488032132        3.2684022684        1.4252179530
 O         -6.8581881665       -2.8031059951       -2.5171188685
 H         -7.4740971019       -2.3350306119       -1.9327659172
 H         -6.0076932351       -2.7866515698       -2.0452809250
 O          1.7626437716       -0.2564457300        2.2781190321
 H          2.4593817444       -0.6164865896        1.6803860471
 H          2.0301511412        0.6338799719        2.5453479699
 O          2.3645593184        4.3410868804       -4.1234080025
 H          1.7549398251        4.1850499522       -4.8621369988
 H          2.7272506189        3.4819022675       -3.8159982571
 O         -1.2901246601       -2.8367491833       -1.9449808862
 H         -0.5138799966       -2.6267553765       -2.4894008259
 H         -2.0497879122       -2.3669499768       -2.3311741990
 O         -2.1631539131        2.0815887787       -2.2087945369
 H         -1.8310169206        2.9890730474       -2.1979171050
 H         -3.1127184915        2.1352515730       -1.9300012951
 O          0.3197707282       -0.4407691430        4.5041588931
 H          0.0684830681        0.4694929845        4.7223356846
 H          0.9541843468       -0.4008763992        3.7669052300
 O         -2.7936595857        5.6794842998       -6.1889010246
 H         -3.6731903227        5.2946417917       -6.2627312514
 H         -2.7979284269        6.2489310182       -5.3966436182
 O         -5.4105112712       -2.4281428051       -4.8172274366
 H         -6.1041182413       -2.5215923898       -4.1471399420
 H         -5.2207238372       -1.4799384461       -4.8853778001
 O         -1.0731310057       -5.2498916206       -3.0747258961
 H         -1.4711409919       -5.1040359164       -3.9570918155
 H         -1.3164250730       -4.4622212787       -2.5439559452
 O          3.3444042484       -2.6814079093       -3.0856565160
 H          3.7678642607       -1.8041384233       -3.0656901593
 H          3.6037347243       -3.0821080085       -2.2331930270
 O          4.8541891284       -0.9437709141       -6.1628909835
 H          4.3441380589       -1.5623276614       -6.7001089878
 H          4.2752865138       -0.6954641169       -5.4126086419
 O         -0.6227263894       -2.6637907492        5.7157906275
 H         -1.0133412917       -3.1945826202        4.9960377748
 H         -0.2903137968       -1.8440105351        5.3113785727
 O         -7.9861681466        2.7069156502        1.1944918086
 H         -7.6682070755        3.6002293652        0.9802074521
 H         -8.2607246638        2.3348127382        0.3401019709
 O         -0.9093971549       -5.5063747519        6.0553413811
 H         -0.4850786498       -5.7124685410        6.8873741081
 H         -0.2068586156       -5.1169063860        5.4720716571
 O         -6.4791896184       -4.1004051499        0.4647179331
 H         -7.1218212733       -3.4750899900        0.8188735219
 H         -6.1173202248       -4.5660685612        1.2370479969
 O         -3.5189099752       -5.4608608850        0.5825232095
 H         -2.7922043562       -4.8254046827        0.4703556401
 H         -3.8178282636       -5.7216425330       -0.3135193738
 O          3.2382135424        1.2127929271       -0.8073569404
 H          2.6472190286        1.7156366334       -0.2243565427
 H          2.6225761159        0.6263858669       -1.3149207756
 O         -2.6176762797        7.3211273677       -4.0078960086
 H         -2.2270901975        6.8225488239       -3.2468269210
 H         -2.1721632132        8.1698996131       -4.0087438401
 O          1.6515487372       -0.4107514427       -2.0165238841
 H          2.0917365904       -0.4072000415       -2.8854524891
 H          1.6971991235       -1.3103718474       -1.6707486438
 O          7.0825446289       -2.0435847158       -2.6536102260
 H          6.2011238088       -1.6102803152       -2.5255895072
 H          7.6995040791       -1.4450536014       -2.1894610896
 O          3.3509107651       -6.2610816809       -1.4137228029
 H          2.5757048925       -5.9213261393       -1.9017452534
 H          4.0539185703       -6.3426196987       -2.1017910328
 O          7.0992429868       -3.2721605764        4.1863152858
 H          6.9408332489       -4.0607204929        3.6602043506
 H          7.1257360120       -2.5146136883        3.5682488445
 O          6.6914496549       -4.4125342223       -1.5169262575
 H          6.9785428235       -3.6176451057       -2.0124218086
 H          5.7862680182       -4.1800934366       -1.2081232057
 O         -4.3060132221       -6.1985640755       -1.8895662654
 H         -4.0278825920       -5.5085641430       -2.5261111840
 H         -5.2855105373       -6.1371929568       -1.8866200859
 O         -4.7019222974        0.2892857355       -4.9454705025
 H         -3.8534572118        0.7578639707       -4.7840606271
 H         -5.3934500402        0.9469112567       -4.7648966853
 O         -1.7589132856        5.6636028247        1.1232526596
 H         -1.9044919945        5.2065950311        1.9677009479
 H         -2.3137039224        6.4624456363        1.1054381806
 O          5.8514665987        3.9227182646       -3.6396799720
 H          6.7854020914        3.7068613227       -3.6269456808
 H          5.6010175492        4.2392773019       -4.5338785082
 O          3.4838865319        3.4763896262        1.6726201321
 H          3.6654075244        4.2803089605        2.1913986661
 H          3.5408501574        3.7470771773        0.7350812359
 O          2.9568197844        7.0259202371       -4.5744575846
 H          2.0381792539        6.7267051563       -4.6777619474
 H          3.4501567029        6.7002034600       -5.3300937019
 O          1.6042494699        6.2870033438        3.8930421178
 H          1.2590048108        7.0544186608        3.4178999182
 H          1.2130320344        5.5015634335        3.4355821286
 O          4.1965582260       -3.8071219836       -0.8047481626
 H          3.7722923158       -4.6901027105       -0.7630709316
 H          4.3542425408       -3.5035928701        0.1096600919
 O         -1.6943495319       -3.9893599389        3.6011339761
 H         -1.6930495483       -3.1076782265        3.1758410055
 H         -1.1242836974       -4.5520760328        3.0441735910
 O          2.2327637789        2.1151812688        3.7573007721
 H          2.0112452716        1.8111291553        4.6501766599
 H          3.0548716971        2.6267734532        3.8879468036
 O          2.4381366802        7.9561274106       -1.9022943300
 H          2.9702829839        7.9330405949       -2.7042398627
 H          3.0344586721        7.6983260443       -1.1708908890
 O         -1.5189506486        1.2169730960       -8.0404149081
 H         -2.4767791752        1.0112064400       -8.0034425746
 H         -1.4396883165        2.1030333970       -7.6421811678
 O          3.0981862426       -2.5928665389        3.2969433600
 H          3.2607115276       -1.6949504402        3.6575820729
 H          3.1910211665       -3.2012284718        4.0510674043
 O          1.2157159630        2.6980963794       -2.0265914395
 H          1.1122694898        2.3855644787       -2.9507313538
 H          0.5749922880        3.4156282807       -1.8992887965
 O          4.4922369279        4.6210468980       -5.8176055432
 H          4.5867505689        3.7443730524       -6.2142188087
 H          3.7071671146        4.5724122331       -5.2334867927
 O          0.6778410290        4.0899847285        2.7767060030
 H          1.1433489317        3.3334615253        3.1862530027
 H         -0.2802492098        4.0048135386        2.9660295987
 O          3.6624867660       -3.9573777791        5.6010459427
 H          2.8616004007       -3.9397310251        6.1480641950
 H          4.3017829318       -3.3567756672        5.9937785901
 O         -1.9331714384       -7.4567411968       -1.8878613807
 H         -1.6035689207       -6.6081428344       -2.2671787306
 H         -2.8930283687       -7.3129020171       -1.8440802129
 O         -5.5093856481       -0.3671057564       -1.9799096871
 H         -5.2230938711        0.5691909007       -1.8848128921
 H         -5.6560103860       -0.6901764221       -1.0733893950
 O          0.4022407908       -3.6936170093       -6.1812163535
 H         -0.4425331307       -4.1561658525       -6.0660377528
 H          1.0885349543       -4.3855739476       -6.0820172324
 O          4.4494635001       -0.5344680672        8.0643264162
 H          3.5599769135       -0.6699245602        7.6862846995
 H          5.0159413091       -1.1735589445        7.6167323529
 O          4.9122497863       -0.6081113586       -2.3822726114
 H          5.0705359536       -0.2022317579       -1.5116433736
 H          5.2302169516        0.0337200403       -3.0516276519
 O          4.8144186846        1.8648478975       -6.2214329095
 H          5.0844877487        1.1338922296       -6.7866292767
 H          5.2351049809        1.6481791971       -5.3583928510
 O          6.8018916034       -1.1426224419        2.5135494671
 H          7.6031172076       -1.1750883368        1.9622942943
 H          6.1183984150       -1.6712612219        2.0532913305
 O         -2.6527639449       -2.1179803657       -5.3815468595
 H         -3.2426863653       -2.0939120035       -6.1471228348
 H         -1.9243337027       -1.4900358499       -5.5987764358
 O         -1.4898791505        6.1515660280       -1.9170923757
 H         -0.5771489008        5.8172591852       -2.0245534625
 H         -1.4194606209        6.8905656212       -1.2810533025
 O          6.6741077489       -2.6499957095       -5.2383021950
 H          6.8700146451       -2.4435050411       -4.3029984705
 H          6.0632780149       -1.9510950659       -5.5701305606
 O         -4.4921076639       -2.9923216919       -1.0150166612
 H         -4.0661498618       -2.3158871310       -0.4815457790
 H         -5.0863449181       -3.4958744609       -0.4249034786
 O         -4.6527444196        2.0629374120       -1.5073065478
 H         -5.0552565672        2.8665351729       -1.8753314179
 H         -4.8846305617        2.0350367081       -0.5450726457
 O          1.0371009553        4.2116392978       -6.4828060864
 H          0.0953402674        3.8909806163       -6.4498325199
 H          1.0433209627        4.9985064964       -7.0245724512
 O         -8.3139666363       -1.2616095148       -0.7412739239
 H         -8.4925685600       -1.6139393775        0.1346866480
 H         -8.2965878232       -0.3025825288       -0.6688104206
 O          4.4820696666        3.4366971457        4.5730572421
 H          4.6775869283        3.0359622020        5.4288147820
 H          5.2501589838        3.2250390453        3.9982626317
 O          4.9597749067        1.6061377823        6.5716560869
 H          5.5135023124        1.2066927314        5.8775954821
 H          4.8989529520        0.9286059682        7.2803077547
 O          4.5370012277        1.0277840469        2.2414773511
 H          4.0215270455        1.8353714339        2.0544727043
 H          4.2304802906        0.6530314317        3.0815443786
 O         -3.2870543920        2.0177141292        4.1162245477
 H         -4.1142844845        2.0733743801        4.6095240291
 H         -3.4232378972        1.3919974658        3.3670451952
 O          0.1617705260        6.4533332096       -4.6800182149
 H          0.0400191393        7.1689860802       -4.0150152824
 H         -0.4844537352        6.6208483153       -5.3691559166
 O         -5.5316256166       -4.6381159004        2.8849787836
 H         -4.8917001732       -5.1724560341        3.4042443093
 H         -6.0320884796       -4.1035963556        3.5159622405
 O          1.0002141669        0.3082692063       -8.6083383610
 H          1.4996769419        0.9959652413       -8.1364199594
 H          0.0885860658        0.6423862501       -8.6405988643
 O         -3.9389708697       -2.7125603748        1.8843243937
 H         -4.4492509299       -3.5254385787        2.0790889480
 H         -3.1075843302       -2.9829866510        1.4522736892
 O         -3.8398415129       -2.0488267769        4.4542237541
 H         -3.5320028575       -2.8204758085        4.9618178814
 H         -3.7381904809       -2.2540268007        3.4999788733
 O         -7.7187114718        0.0311361246       -3.4128992532
 H         -6.8887044553       -0.2472522045       -2.9540150059
 H         -8.2186391273       -0.7701639261       -3.5677712204
 O         -5.4792573744        1.6180806930        0.9268587418
 H         -5.5761946404        0.6469088273        0.8975712478
 H         -6.3702412384        1.9795524166        1.0565527878
 O         -4.0842712812        0.5718185690       -7.5609401218
 H         -3.9629123267       -0.3221623972       -7.9148551467
 H         -4.3627962389        0.4214209756       -6.6319806986
 O         -5.8189487576       -0.4857726401        6.2884195904
 H         -5.6572205545        0.4390609804        6.5225442790
 H         -5.1360844622       -0.9828747835        6.7786439559
 O         -1.1523397976        8.3544783594       -0.4065000302
 H         -2.0114818120        8.4626765288        0.0226839328
 H         -0.5076613757        8.2517722931        0.3255590211
 O          3.6433365914       -8.0516187816        2.3403380500
 H          4.4528557657       -7.9794330487        1.8216972875
 H          2.9239210149       -7.9338333200        1.6889372265
 O         -3.2272715122       -4.0327933942        6.2398112113
 H         -3.8386840089       -4.7311270642        5.9906635437
 H         -2.3483279012       -4.4569671436        6.2099438577
 O         -0.4832690115        2.6506834115        8.1847140552
 H         -0.3486988042        1.7099524422        7.9479239312
 H          0.2449408500        3.1461792248        7.8027799263
 O         -6.8878248988       -5.5171087281       -1.8507033824
 H         -6.8976193022       -5.2048836214       -0.9322726677
 H         -6.9863258226       -4.7062757007       -2.3736871567
 O          5.8108060846        3.0162948654       -0.5805677516
 H          6.0428279761        3.7544443116        0.0060221947
 H          4.8919893784        3.2309948446       -0.8553526622
 O         -2.0331606915       -4.6809415719       -5.5116572580
 H         -2.3146084756       -3.7433814292       -5.3538557010
 H         -2.8390865365       -5.1748411121       -5.6585450569
 O          1.4387105109       -3.4671927911        7.1642781459
 H          1.0253873198       -3.3756630585        8.0258979294
 H          0.7137101302       -3.3510604200        6.5021679408
 O          5.3580427332       -6.1689204054       -3.1240349523
 H          5.0940720323       -5.5970535786       -3.8652689237
 H          6.0139298007       -5.6495979069       -2.6219651004
 O          1.5418071102       -5.0277860416       -2.9806384781
 H          1.6929755112       -4.1029306332       -2.7521393575
 H          0.5601172934       -5.1442465556       -2.9878894782
 O          6.1706354322       -5.2282102677        2.2053514855
 H          6.0172091698       -5.8627513749        1.4787860439
 H          5.4112490012       -5.3969415987        2.8086951662
 O         -6.4621794733        3.9602750108       -2.2125326945
 H         -6.4769068867        4.2503883566       -1.2694456957
 H         -6.2354810050        4.7489187760       -2.7197609946
 O          5.8458527864        5.2197624005        1.0233910099
 H          5.4248400922        5.8000323814        0.3724574773
 H          5.3971254898        5.4538772938        1.8495570146
 O         -0.8975171004       -8.4665708504        0.3000878016
 H         -0.8440041140       -9.3978613878        0.0888814469
 H         -1.2942617821       -8.0244318262       -0.4982675403
 O          1.6770720757       -7.5082467824        0.5508142997
 H          1.9624265850       -7.5563660455       -0.3716659102
 H          0.7641272567       -7.8509562879        0.5632416155
 O          4.5610508545       -4.2098844872       -4.9018376240
 H          5.4289252384       -3.7674219454       -5.0641869882
 H          4.1020682586       -3.6586395170       -4.2223688418
 O         -3.7105643976       -4.0292434273       -3.3822978781
 H         -4.3006738273       -3.5813159202       -4.0144975225
 H         -3.8831236997       -3.5935529977       -2.5314202329
 O          1.5050191939        5.5898201764        0.6818726669
 H          1.2937868565        5.3533794232       -0.2382268623
 H          1.2434734648        4.8680559197        1.2773123844
 O         -4.9628268315        2.1428766295        6.4042505290
 H         -5.5726517328        2.8252270217        6.6876463252
 H         -4.0709417883        2.4323504658        6.6688445631
 O         -6.4289591170        4.7415244547        0.3429733316
 H         -6.1831985259        5.6451231986        0.0776086154
 H         -5.6273043135        4.3986137309        0.8037474752
 O         -6.4870125392       -2.5576391214        4.3878130109
 H         -6.9229160363       -2.1233667027        5.1241140435
 H         -5.5478664736       -2.2659377415        4.4453751683
 O          0.8612139166       -7.6645378826       -2.1225407573
 H          1.2448898569       -7.5007727777       -2.9850370694
 H         -0.0702152830       -7.8677182809       -2.2664806101
 O         -0.8591185059        4.0808400645       -3.6728039339
 H         -0.4695974033        4.8981441490       -4.0224420426
 H         -0.4110323603        3.3389954412       -4.1105799199
 O         -5.1077906079        6.1563672405       -3.5248902993
 H         -4.5275440123        6.8581473323       -3.8403118313
 H         -4.5406594079        5.3458664170       -3.5714952648
 O         -3.2553255512       -2.0083573590       -8.0555991596
 H         -3.6341383354       -2.6078111098       -8.6964294528
 H         -2.2807058848       -2.0436466386       -8.1845164427
 O          2.1852955652       -5.5889898049       -5.5033860678
 H          1.9519611757       -5.4421418702       -4.5612698459
 H          3.1405082667       -5.4826486282       -5.5328688086
 O         -3.6015248949        4.0046788844       -3.7721233798
 H         -3.8486079801        3.6396687848       -4.6365211782
 H         -2.6374588865        4.1346677399       -3.7816096061
 O         -1.0749306783       -7.8260875319        4.5725802120
 H         -1.2468701979       -7.0439319713        5.1281513542
 H         -1.7008513391       -7.7925739250        3.8397215359
 O          3.7649823952        6.9971056789        0.3011293911
 H          3.0101289773        6.4020509800        0.4895816344
 H          3.8046025517        7.6154266037        1.0304387136
 O          4.0915358383        5.6847038656        3.1515439196
 H          4.3477205706        5.1089770594        3.8875564477
 H          3.2180686951        6.0512556676        3.4064546801
 O         -7.7862439520       -2.0551872027        1.9965486551
 H         -8.2289629131       -1.2174359815        2.2521536512
 H         -7.3604061147       -2.3460297626        2.8256706030
 O         -0.2329472272        0.1194700737        7.3029671717
 H         -0.4748386638       -0.6263660892        7.8939539905
 H         -0.9136769951        0.1027313283        6.6027429874
 O         -0.4735301503        2.2178249751        4.9815788423
 H         -1.3218830983        2.4045057983        5.4157834946
 H          0.1182676684        2.9353876365        5.2542258881
 O          1.3150844350       -7.1833685058        3.6836071997
 H          1.9289961421       -7.8999684113        3.5135415874
 H          0.4978697646       -7.5678746302        4.0814445880
 O          1.6201620548       -1.0900166426       -6.3893022209
 H          1.5585946063       -0.6431208929       -7.2534558751
 H          2.0765980820       -1.9343637552       -6.5452571974
 O         -3.6264396272       -1.5771235948        7.5123233819
 H         -3.5680769099       -2.4666935779        7.1313524147
 H         -3.1241071326       -0.9915791319        6.9155010586
 O         -4.8925957058        4.8016551835        5.2034698068
 H         -5.4192686337        4.1694285834        4.6847354190
 H         -4.1239619132        4.3196079042        5.5223751800
 O         -3.5846349931       -5.8271765275        4.1937838272
 H         -2.8952430686       -5.1562283299        4.0021873357
 H         -3.4041200708       -6.5625729668        3.5984920083
 O         -5.8773095828        0.3287451160        3.7308498749
 H         -5.0809650423        0.0553190107        3.2354906272
 H         -5.8177025125       -0.0527680771        4.6303466164
 O         -8.0543424664        1.7400056004       -1.3366854943
 H         -8.1275303168        1.1360655045       -2.0975684736
 H         -7.5986720783        2.5195954694       -1.6797693496
 O         -4.5719561829        3.2721784053       -6.2427176825
 H         -4.3278201508        2.5574719596       -6.8404946408
 H         -5.4193668739        3.0161240599       -5.8545886623
 O         -0.0675035977        8.5256977570       -2.9620759227
 H         -0.5525162239        8.5838783536       -2.1233808922
 H          0.8589462650        8.5892449125       -2.6931066975
 O          5.8248802158        0.4148286887       -0.0300857305
 H          5.4633364795        0.3812329151        0.8703614025
 H          5.7905999146        1.3684168715       -0.2556090704
 O         -1.8953101898        4.1640709406        3.3739753812
 H         -1.8083519833        4.6557217706        4.2101950848
 H         -2.4442544055        3.3773484513        3.5629287325
 O          3.7280425534        2.2212687600       -3.2943574548
 H          3.6226650911        1.9375151728       -2.3625037414
 H          4.5792808634        2.6883855047       -3.3527157715
 O          6.6413893431        0.6125124118        4.6087736046
 H          6.9608891955        1.4452601142        4.2475550355
 H          6.6272310575        0.0024243606        3.8487240123
 O          2.3102563263        1.9668389141        6.4729896280
 H          3.2817221672        1.8304206116        6.5140821697
 H          1.9218274755        1.3846669948        7.1279397247
 O          5.7268950156       -1.7431491763        5.8637585991
 H          6.1847761520       -2.4405317990        5.3470921905
 H          6.3340668137       -0.9947006870        5.8240507973
 O          3.8767144011       -5.5952929381        3.4118528373
 H          3.7088766328       -6.5528433698        3.3149718514
 H          3.7249067284       -5.3069976329        4.3219315969
 O         -6.5519336935        2.2524681834       -4.5053139300
 H         -6.4782927871        2.8432959543       -3.7440669045
 H         -7.2053574946        1.5759551740       -4.2720508680
 O         -6.1345854100        2.9476127966        3.5795551280
 H         -6.0395860445        1.9669111437        3.6641554865
 H         -6.9749202429        3.0964771336        3.1409332261
 O         -2.5635082477       -7.3295442321        2.1157389067
 H         -2.1581644045       -7.9726075610        1.5139194802
 H         -3.0380790411       -6.6755319393        1.5279347937
 O         -2.4960476301        3.2731162159        6.6014615236
 H         -2.2527206819        4.1916346760        6.4111466470
 H         -1.8935025620        3.0153953619        7.3359941240
 O         -1.7016144052        7.3658714459        3.6832301955
 H         -2.5695639138        6.9433153357        3.4537079050
 H         -1.8862242661        8.2895561962        3.8490091083
 O          4.3825997862        5.8891423826       -2.4671067523
 H          3.8667296471        6.1811238902       -3.2360406510
 H          5.0550755493        5.2798112759       -2.8085410174
 O          7.7093188741        2.2328464334       -2.3564849255
 H          8.1340243432        1.4744291683       -1.9294518476
 H          7.0845811636        2.5995374121       -1.7005636090
 O          6.1910589797        0.9605977902       -4.1124287700
 H          6.8458186709        0.4641103466       -4.6391849745
 H          6.7346271077        1.5000751501       -3.4916179739
 O         -1.3553403129        5.5415221184        5.6402464608
 H         -0.4388814230        5.3040654268        5.8358731449
 H         -1.3389736793        6.3554143024        5.1046126963
 O          1.1451454964        5.5905414726       -2.0234944957
 H          1.5656245065        5.1707912274       -2.7984086898
 H          1.5411916038        6.4849751879       -1.9733990912
 O         -3.4800939626        7.8115141789        0.9439458030
 H         -3.9348105808        7.5876462750        1.7658343993
 H         -4.0880674044        7.5338556602        0.2269069673
 O          6.4530041667        2.8341998201        2.8459056686
 H          6.5066618421        3.5522315317        2.2082053733
 H          5.9013547276        2.1306114603        2.4446601220
 O          0.3172880116        7.7245399831        1.7829516186
 H         -0.4510535353        7.4347324534        2.3008844787
 H          0.6853640938        6.9304600693        1.3414661153
 O          8.2200979559       -0.1965292344       -1.0671422437
 H          8.7292758959       -0.6534032500       -0.3809675168
 H          7.3564957034       -0.0086140690       -0.6408837761
 O          3.7254152346       -0.3551002270        4.5536315841
 H          4.5197388733       -0.7560577302        4.9483099709
 H          3.0485620941       -0.4089273222        5.2566247208
 O         -1.4288726316        3.4112077224       -6.4733919139
 H         -1.9542852708        4.2360549271       -6.4428111363
 H         -1.8192117698        2.8136439714       -5.7920432946
 O          9.0364753826       -1.6792327876        1.0744819348
 H          9.8876259578       -1.7275107703        1.5082583939
 H          8.7734081399       -2.6166887723        0.8744975573
 O          5.3539640245       -6.9845549089        0.3026642589
 H          5.9994964340       -7.2040943061       -0.3709669822
 H          4.5439284621       -6.7378221247       -0.1780064883
 O          8.2676883119       -4.1446401572        0.6467584451
 H          7.7669250390       -4.2915716286       -0.1843189851
 H          7.7473030391       -4.5593080340        1.3432531853
 O          8.2081282431       -0.3410204171       -5.3781802718
 H          9.0333613443       -0.4016588739       -4.8965741794
 H          7.9176749704       -1.2483044261       -5.5683568618
 O          0.5829317060        1.8876353212       -4.4249263354
 H          0.1008519805        1.0945011344       -4.1075063995
 H          1.0784904092        1.6618997221       -5.2292785478
 O         -1.0408185395       -2.1984812759        8.3452465248
 H         -1.0357085301       -2.4846452580        7.4106273698
 H         -1.9720042598       -2.0367059758        8.5473789230
