  84
       -142.50955400
 O          3.4012152143        2.1972367786        1.1216599796
 H          3.9614916609        1.4888419462        0.7750957411
 H          2.8817554755        2.5243330067        0.3633055464
 O          3.8295899274        1.9344807343       -2.4775392863
 H          3.0656920039        2.3530783041       -2.0384816694
 H          4.4084763166        2.6393024542       -2.7681875326
 O          4.6344516595        0.1823703697       -0.4410376397
 H          4.8507518441       -0.6626821628       -0.9034016792
 H          4.4097038649        0.7850922214       -1.1694520378
 O         -1.5803245443       -3.8407128297        1.2484816040
 H         -1.8192894047       -3.0368420168        0.7484580856
 H         -2.3925057586       -4.3193326441        1.4183216710
 O         -0.7878578568        2.1539163428       -2.6083405432
 H         -1.3670945563        2.5000425311       -1.9065443026
 H          0.0658562415        2.5768960639       -2.4668743188
 O         -2.9837012992        0.2256798981       -2.2279030428
 H         -2.2995111880        0.7889676965       -2.6039328314
 H         -3.7284679358        0.8115388278       -2.0279595674
 O         -4.9210710447        2.0260027480       -1.3365187720
 H         -5.0680225667        1.5936755648       -0.4529589008
 H         -5.7674134283        2.3751628928       -1.6142158547
 O         -2.6560761973        1.8365247820        2.0739600369
 H         -2.7182489281        1.0060883068        2.5900266517
 H         -1.9197657519        2.3327951163        2.4598572555
 O         -0.5614908433       -2.8694670693       -2.6585346945
 H         -0.8423166987       -3.2669505939       -3.4822374500
 H         -0.1720697244       -1.9992522069       -2.8907917323
 O          1.7287578691        2.7681037347       -1.0108880157
 H          1.3928270808        1.8621133415       -0.8516636354
 H          1.0977520279        3.3780180443       -0.5595075525
 O          2.8755017566       -3.6434352619       -0.2921670905
 H          1.9588800716       -3.9813799206       -0.4606197034
 H          3.3347559584       -4.3399568124        0.1779438273
 O         -3.0047150856       -0.5543397659        3.3049796923
 H         -2.3091157302       -1.1882945803        3.5894768264
 H         -3.6434215195       -1.0732917521        2.8063593617
 O          2.6822083962       -1.1939059467        0.8032506227
 H          2.7652592825       -2.0949665718        0.4305513111
 H          3.4686321816       -0.7013176040        0.4869181123
 O         -1.0578572686       -2.3717304549        3.6865442922
 H         -0.1821536897       -1.9481397521        3.6374139721
 H         -1.0949852222       -2.9923953380        2.9457510236
 O          1.3561950564       -1.0946792778        3.2406404478
 H          1.3835529306       -0.1341021165        3.3483616733
 H          1.8876245440       -1.2662331564        2.4477154804
 O         -5.1053715670        0.9084128339        1.0327117190
 H         -4.4167662972        1.3668701397        1.5339465062
 H         -4.8484337396       -0.0308902199        1.0401295041
 O          4.6491876762       -2.0607709730       -1.8578466904
 H          4.0443412418       -2.6961182888       -1.4510482590
 H          4.1599662306       -1.6629001511       -2.6051817953
 O         -0.1266814890        4.1577958058        0.2801955135
 H         -0.1499152131        3.8983656769        1.2155287806
 H         -0.9971822064        3.9138943301       -0.0687170430
 O          3.1633774016       -0.5966333285       -3.6207457054
 H          2.1976621960       -0.6098994163       -3.5294916479
 H          3.4404265889        0.2925031998       -3.3629688131
 O         -2.4516819035        2.8676442892       -0.4807804384
 H         -2.5400546026        2.4703433441        0.4060731132
 H         -3.3345946886        2.7896676691       -0.8761525821
 O         -0.3350375537        3.1980502596        2.8950217093
 H         -0.3570092953        3.8010700848        3.6386820519
 H          0.4463293823        2.6143047307        3.0218976859
 O          0.4100402695       -4.4980830736       -0.6538797698
 H         -0.2059445853       -4.3670761751        0.0833660454
 H          0.0629128659       -3.9806407035       -1.4011068862
 O          0.4367505014       -0.3934429795       -3.0454382590
 H          0.6197903579       -0.2221907400       -2.0961160531
 H         -0.0925774325        0.3649703998       -3.3212942951
 O          1.8616872131        1.6859446347        3.1827343834
 H          2.4246983900        1.8515789374        3.9402431139
 H          2.4370893705        1.8434435748        2.3849887829
 O         -4.2302210850       -1.7426681614        0.8781355934
 H         -4.8161491139       -2.0989933231        0.2091357367
 H         -3.3489397651       -1.6450140116        0.4504909769
 O          0.7897719166        0.1969924691       -0.4607088030
 H          1.4957572562       -0.3150447917        0.0100973388
 H         -0.0422120754       -0.0689543235       -0.0553327622
 O         -1.8311750509       -1.5259877596       -0.5613228544
 H         -1.4241402441       -2.0759230677       -1.2506200418
 H         -2.2417828391       -0.7968529907       -1.0689557896
 O         -5.5629120895       -1.7330185571       -1.4795601108
 H         -6.2817561848       -1.1689714707       -1.1871974863
 H         -4.8944785549       -1.1655374245       -1.8781622248
