  147
       -244.15083435
 H         -2.5739018278       -1.1727971109       -0.6176507564
 C         -3.1461614576       -0.3957084901       -0.1083539637
 H         -4.2095567433       -0.5381801062       -0.3030711650
 C         -2.7369359721        0.9609821552       -0.6590119585
 H         -3.2154766388        1.7429983988       -0.0734866129
 H         -3.0589562168        1.0274555846       -1.6951526229
 O         -2.9518437367       -0.4863715170        1.2834012390
 H         -1.9953760178       -0.6559960725        1.4301823904
 N         -1.2768911303        1.1383318597       -0.5911522785
 H         -0.7778516073        0.3472331107       -1.0603990688
 H         -0.9512088208        1.1625173755        0.4047427550
 H         -1.0474045093        2.0447631279       -1.0453275833
 O          5.9369768019       -0.6829206041        0.7705577246
 H          6.5902468354        0.0280544214        0.6437166079
 H          5.3771292739       -0.6667628887       -0.0334507686
 O          5.6421950183       -3.0064092480        2.1066468719
 H          6.1193028500       -3.7823487128        1.8121513327
 H          5.9300721778       -2.2616578450        1.5452236597
 O          1.1242647529       -1.4953269642       -3.9943527542
 H          1.9663271403       -1.8827454231       -3.6246939355
 H          0.5567089855       -2.2717065432       -4.0927848486
 O          5.2056766158        0.8718083154       -3.7022795733
 H          4.2475885367        0.9927376479       -3.9149813660
 H          5.6538587574        0.6728091700       -4.5240400414
 O         -0.6013728771       -3.7184277782        1.9121783161
 H          0.1145782486       -3.6174033031        2.5562313343
 H         -1.4211182383       -3.7592644146        2.4773175337
 O          1.2496680275        3.5412031952       -0.6800791953
 H          1.1244374279        3.6993853900        0.2724522164
 H          0.4092714471        3.7561705378       -1.1175130706
 O          1.2573774161        3.7663827332        2.0402254534
 H          1.0482253831        4.4243222235        2.7038128797
 H          2.2229792901        3.5984324673        2.0931050886
 O         -5.0406969635        2.1698044212       -2.9525179262
 H         -5.0662397102        1.1981093821       -3.0374946102
 H         -4.1892548500        2.4461257483       -3.3265249392
 O         -1.2139608123        0.3688558644       -3.5697188195
 H         -0.4774381000        0.0874627750       -4.1183959714
 H         -1.6945102702       -0.4471350398       -3.3286711378
 O         -2.3964581063       -2.0054479454       -2.9967743400
 H         -2.8183183471       -2.4745813713       -2.2492328819
 H         -1.7290489743       -2.6292544445       -3.3239308093
 O         -2.4521794444        2.6917167502       -3.8611383111
 H         -2.0134423401        1.8091872124       -3.8121537545
 H         -2.3465158360        3.0037680628       -4.7604648774
 O          6.0988199931        2.5556040864       -1.6737254464
 H          5.8454634605        2.0112386709       -2.4352772361
 H          5.3051987977        3.0384136368       -1.3992341773
 O          2.8633349432        1.0945868562        3.4570663979
 H          3.1625891095        1.9149884207        3.0349108157
 H          3.6809750703        0.5887549248        3.6220939291
 O         -0.3982313955        1.5903142707        1.9188650631
 H         -0.1782605524        0.8728630800        2.5529689101
 H          0.2754395334        2.2814840767        2.0224883674
 O         -6.7466935288       -1.6600862406        0.7336038628
 H         -7.5845650506       -1.7750537694        1.1828896137
 H         -6.4684858583       -0.7213871501        0.9096489483
 O          3.1209225826       -2.5304866174       -2.6764431691
 H          3.7048278005       -1.8781413861       -2.2511488372
 H          2.5649525837       -2.8796420559       -1.9570981406
 O          1.4046312972       -3.0025291757       -0.6177336462
 H          1.9073463177       -3.0929798229        0.2087571060
 H          0.6394317189       -3.5926848611       -0.5655243134
 O         -6.1703443264       -2.5606300202       -1.7528009096
 H         -6.9650325224       -2.9369022352       -2.1322535275
 H         -6.4079501660       -2.2334138854       -0.8602458236
 O         -1.0128812771       -4.3826430644       -0.6960633599
 H         -1.9501798594       -4.1895668781       -0.8523397736
 H         -0.9195559018       -4.3400041536        0.2732400626
 O         -3.2647657247        4.3235667232        0.1068993473
 H         -4.0896541197        3.8247358584       -0.1142268312
 H         -3.5233364550        5.2328968917        0.2609046012
 O         -4.2339305157        1.0417804803        3.3524635783
 H         -4.6190738944        1.3004913182        4.1903359118
 H         -3.6568000603        1.7863010163        3.0624138738
 O         -0.4063060999       -1.1875704234        1.0361096994
 H         -0.4723430243       -2.1183902469        1.3318150659
 H          0.4972351162       -0.8966485792        1.2298494743
 O         -2.4127773097       -0.9772201757        4.1213556933
 H         -3.0314929125       -0.3443588388        3.7244117295
 H         -1.5342197603       -0.5844875698        4.0823661834
 O         -1.2681825726        3.6612385123       -1.6298288912
 H         -1.9684595645        3.9962506726       -1.0391670510
 H         -1.6907876706        3.4784198305       -2.4902054264
 O         -5.4176813243        2.8950126961       -0.4947015286
 H         -5.2849200230        2.5911502210       -1.4403718040
 H         -6.2733801058        3.3269932310       -0.4792166679
 O         -2.6297395188        2.9996226313        2.5290329523
 H         -1.8211772253        2.4801480081        2.3547472254
 H         -2.8229136334        3.4883958049        1.7166787087
 O          2.9861629491       -2.7611199810        1.6036129449
 H          3.9327719916       -2.9041729841        1.7908075305
 H          2.8660499502       -1.8024685097        1.4313230372
 O          0.3606517065       -0.1676517838        3.7853654085
 H          1.1753502786        0.2942403682        4.0210600467
 H          0.6003932663       -1.1099155787        3.7186271879
 O          7.4073837258        1.5552544656        0.3840895477
 H          6.9292359008        1.9468085582       -0.3899971143
 H          8.3380154242        1.7302185231        0.2422385038
 O          6.1810614617        2.3413987167        2.7439388134
 H          6.6940265343        2.1257103076        1.9459881523
 H          5.9960439296        1.4978778940        3.1795542934
 O          3.9176429432        4.0335814904       -0.7594305046
 H          4.1100827573        4.9619875226       -0.8972132286
 H          2.9626666704        3.9096202180       -0.9123783961
 O          1.3295024532       -2.7583249222        3.6524536947
 H          2.0165108114       -2.8141188517        2.9444219486
 H          1.6527009684       -3.2363173681        4.4152455941
 O         -2.6728985160       -3.6121056547        3.4873281047
 H         -2.5797684638       -2.7121440139        3.8567263905
 H         -3.4352299523       -3.5635401615        2.8929594615
 O         -4.7672815564       -0.5162000726       -3.0173942729
 H         -5.3520335950       -1.1810956427       -2.6224904539
 H         -3.9556592674       -0.9895158417       -3.2395261198
 O          0.4396025075       -0.6941305230       -1.5631926669
 H          0.6619544248       -1.4781170013       -1.0171940328
 H          0.5899850920       -0.9709917291       -2.4947766197
 O          2.5616876603        1.0232364577       -3.9054142388
 H          2.1241439761        0.1977868556       -4.1455430739
 H          2.4303839494        1.1350710526       -2.9461356962
 O          5.1939245250       -0.2546101298        3.3202338998
 H          5.3668738920       -0.3934737112        2.3630138842
 H          5.4218772724       -1.0846158295        3.7428150975
 O         -4.3386546353       -2.7891782362        1.4623909861
 H         -5.2655157654       -2.5325293924        1.3378423465
 H         -3.8522269384       -1.9468943851        1.5879455134
 O         -6.0044619326        0.7798265649        1.2949700553
 H         -5.3393173894        0.7833550873        2.0115113697
 H         -5.7308867673        1.4580118365        0.6608166688
 O         -0.3690561888       -3.8147983615       -3.3471740097
 H         -0.3029421140       -4.6464066009       -3.8173652506
 H         -0.4526565170       -4.0422339110       -2.4026441580
 O          4.4777510828       -0.4734669161       -1.4646707575
 H          4.9482765890       -0.0904003361       -2.2251032363
 H          3.7429489329        0.1367731764       -1.2849215383
 O         -3.6189054213       -3.4502263733       -1.0306509428
 H         -3.7979475932       -3.2785153356       -0.0757699040
 H         -4.4943326469       -3.4151495768       -1.4407255939
 O          2.2067244081       -0.2424710204        1.2626493838
 H          2.3938616251        0.2729115558        2.0769932708
 H          2.3962354310        0.3265180870        0.5019876301
 O          3.8348530239        3.1590821915        1.8846952757
 H          3.9821355005        3.3875390999        0.9525480039
 H          4.7352152277        2.9846690347        2.2569124320
 O          2.2619720084        1.0894513545       -1.1492120798
 H          1.5173716892        0.4394084382       -1.2799542819
 H          1.8735779680        1.9672684677       -0.9772873957
