  101
       -167.54480989
 H          1.7727920897       -1.8725249964       -0.3346124246
 C          1.3143853353       -1.0727369345        0.2499217721
 H          0.9904569149       -1.4719419022        1.2099421052
 C          0.1099884146       -0.5248776502       -0.5145803399
 H         -0.4604209703       -1.3575209495       -0.9192913282
 H          0.4758813699        0.0912799528       -1.3378373994
 N         -0.7993381137        0.2927212547        0.2849007176
 H         -1.2978078974       -0.2892838583        0.9493632847
 H         -0.2756852982        0.9875714064        0.8051163761
 O          2.2703650933       -0.0681503409        0.5314953057
 H          2.6744899995        0.1887719677       -0.3193001172
 O          5.3075731359       -0.0084522472       -0.5661332819
 H          5.1524745972        0.7467065325        0.0285032690
 H          4.6540315302        0.0943872308       -1.2746724257
 O         -2.2743296825        1.2232329580       -1.6177742055
 H         -1.8174915427        0.8599757960       -2.4139560261
 H         -1.7376249024        0.8796384317       -0.8223069081
 O          4.9749067085       -2.4170284660        0.4249006004
 H          5.0598742344       -1.4841863805        0.0881017589
 H          5.8693743485       -2.7521371762        0.4905099133
 O          3.2460752272       -3.0052389117        2.4920529302
 H          3.0380879150       -2.1490178918        2.9150400398
 H          3.9161485478       -2.7943187435        1.8191793889
 O         -5.7150069616        0.4186584537        0.0982657860
 H         -6.6583833735        0.5666480833        0.1628794222
 H         -5.3028673245        1.2867949945       -0.0763244353
 O         -3.0526504782        3.0114858822        1.8792660686
 H         -3.5785177945        2.8879287171        1.0660032293
 H         -2.2163233253        3.4161897893        1.5959685909
 O          4.6058709005        2.3195327952        0.7223993854
 H          3.7324222928        2.4945579871        0.2897516803
 H          5.1572083111        3.0784249048        0.5306692697
 O         -2.7150481566        0.8700230973        3.3373520647
 H         -2.8202379300        1.6765117248        2.7628963853
 H         -3.0905062898        1.1029987124        4.1870076008
 O         -0.5868861461        3.9570350576        1.0597011781
 H         -0.0161836429        3.2837256913        1.5004776116
 H         -0.2370102945        4.8120575637        1.3105050870
 O         -1.0282457045        3.6084177726       -1.6338153174
 H         -1.5305294091        2.7634367346       -1.6276769612
 H         -0.7874851883        3.7715692269       -0.7038155758
 O         -0.6315242646       -2.5887418218        2.4183745762
 H         -0.0163933755       -3.2521227503        2.0749184028
 H         -1.3663272883       -2.5416623172        1.7876071354
 O          3.3401638320        2.2475309637        3.1963062707
 H          3.9074026685        2.2861321932        2.4073737978
 H          3.3414706146        1.3145637540        3.4676466851
 O         -0.2878791739       -2.4323765388       -3.1602996210
 H          0.6817514958       -2.4255097100       -3.1995581044
 H         -0.5069089845       -2.9996725619       -2.3979193624
 O          0.9178570936        2.0679918045        2.1345224546
 H          0.5451802575        1.3174843389        2.6368948493
 H          1.7795065828        2.2690619146        2.5750773162
 O         -3.4286592714        4.8765570816       -1.7988376630
 H         -2.4971456569        4.5688448687       -1.7891297017
 H         -3.6133645683        5.1577640505       -2.6948174951
 O         -3.0778908676       -1.5322631551       -4.1674980489
 H         -2.4231424432       -2.2299551391       -4.0654128442
 H         -3.5184947566       -1.4603921921       -3.3062635013
 O         -1.0050786923        0.1178778479       -3.6729997545
 H         -1.7924280010       -0.1511154853       -4.1798553104
 H         -0.6333948321       -0.7519781700       -3.4076859728
 O          3.1275056918       -3.8510634729       -0.9993474522
 H          3.8293048001       -3.3790897287       -0.5116111934
 H          2.4443556596       -4.0628337338       -0.3442259643
 O         -0.1428977611       -0.1042440282        3.4175590363
 H         -1.0440492304        0.2480110842        3.5209420683
 H         -0.2803342060       -1.0285952189        3.1313198196
 O         -4.2982211561        2.6479976290       -0.5230190843
 H         -3.6156122809        2.1227493088       -0.9791293826
 H         -4.2263663168        3.5361359292       -0.9208012547
 O          3.0438882572        0.2451016285       -2.1199909003
 H          2.8190131719       -0.6228145627       -2.5035965631
 H          2.4455598489        0.8910360554       -2.5201956350
 O         -3.8910783048       -0.9654157088       -1.5340275667
 H         -3.3615517093       -0.1441194152       -1.5871122217
 H         -4.6970339526       -0.7128075429       -1.0629114742
 O          2.4801905858       -2.2887306598       -3.0202611259
 H          2.9706996762       -2.6111184795       -3.7769576899
 H          2.6997727865       -2.9018806173       -2.2703934796
 O         -2.6260901558       -2.2799451954        0.5040111519
 H         -3.2834806075       -2.0037819397        1.1805160020
 H         -2.9979549932       -1.9195299560       -0.3239905376
 O          2.1929464176        2.7842589887       -0.2585042668
 H          1.8534188519        2.4526156551       -1.0980358700
 H          1.6943488104        2.3453878498        0.4497544619
 O         -4.3366974024       -1.0199115697        2.1166788357
 H         -3.7649387000       -0.3805283868        2.5761534796
 H         -4.8599418156       -0.5131781016        1.4781503847
 O         -0.7255719381       -3.8181194157       -0.8320053864
 H         -0.0179819790       -3.9657160775       -0.1940312732
 H         -1.4700241603       -3.4400762612       -0.3388041741
 O          0.9025494929        1.9674271672       -2.7470992153
 H          0.3299147457        1.3865732846       -3.2706832121
 H          0.3357127448        2.7200570203       -2.4975720681
 O          2.6703442214       -0.4361323552        3.2107905481
 H          2.6147201310       -0.2402065606        2.2555377636
 H          1.7644432294       -0.3655222604        3.5420204436
 O          1.3467112682       -4.2172857140        1.1958383067
 H          2.0539442437       -3.7389022084        1.7246972373
 H          1.3598453316       -5.1236460033        1.5072668618
