  282
       -473.35168565
 H          0.1188831338       -2.3889587647        0.4216537624
 C         -0.1236715897       -1.3703524847        0.1297997525
 H         -0.3642719871       -1.3433609297       -0.9313353585
 C          1.0917740676       -0.5052038187        0.4096512023
 H          1.9327743974       -0.9142881672       -0.1396776489
 H          1.3152482823       -0.5208749662        1.4723328462
 O         -1.2619290260       -0.9803283448        0.8816134219
 H         -1.6322848064       -0.1867600371        0.4467330480
 N          0.8807811559        0.8828799073       -0.0214364012
 H          1.6232486505        1.5089957076        0.3754474298
 H         -0.0019122580        1.2627151540        0.3763695634
 H          0.8381177116        0.9367156141       -1.0552884274
 O         -0.3127553933        3.0452549658       -1.2503046605
 H         -0.1966240073        3.5868720271       -0.4464740388
 H         -0.8411394887        3.5860276248       -1.8746446982
 O          0.5319756224       -5.3044559079        0.1412716041
 H         -0.2253017109       -5.8844128265       -0.0976537313
 H          0.6525890877       -4.7449046055       -0.6486544255
 O          0.6001483498        4.6348002857        0.7194869684
 H          1.2513585390        3.9735544080        1.0369075471
 H          0.0309289415        4.8130288233        1.4867015786
 O          2.3093076694        2.6573107246        1.3484665496
 H          2.0838700248        2.4146640327        2.2678147041
 H          3.2709488392        2.4910006628        1.2495671167
 O         -3.2804858826        0.5293800588        2.5876220953
 H         -3.0527849500        1.1810449351        3.2748302938
 H         -2.8373802387       -0.2931549917        2.8123975098
 O         -2.7533974344       -0.8453954022       -3.0588545940
 H         -1.8207447054       -1.1846349663       -3.0453554538
 H         -3.3220718396       -1.6443753412       -2.9450688193
 O         -0.3834109283        0.3615868182        3.5011079471
 H          0.0329481592       -0.5011098162        3.2782271623
 H         -0.6638475077        0.3039422646        4.4307132529
 O          2.9804326866        1.0003238726       -4.3717767119
 H          3.5207092028        1.8204360639       -4.2917158737
 H          3.6052455821        0.2971326161       -4.5707044997
 O         -1.0138009080        0.2059391997        6.1289426701
 H         -1.9011863825       -0.2349806950        6.0894117061
 H         -1.0585749241        0.8959302137        6.7900183454
 O          4.7390869032       -3.3998445066       -2.2529421741
 H          5.5298205190       -3.1922138589       -2.7797945552
 H          4.1224421472       -3.9064606741       -2.8351328461
 O         -1.0386687951       -3.8419754253        4.9354185050
 H         -0.2810262069       -4.2987629097        4.5153488036
 H         -1.6887026427       -4.5224800069        5.1275472352
 O          4.0129816952       -1.1997463777        0.5120189581
 H          3.7836166531       -0.6383375023        1.2840337256
 H          3.5638925871       -2.0433071129        0.6473415443
 O         -3.0026062332       -5.2885054083        3.2444062911
 H         -2.2076572098       -4.8154342075        2.9432091208
 H         -3.5506125961       -4.6653897510        3.7532916410
 O         -3.4924087181        2.2543078435        0.4964941903
 H         -2.5514137948        2.1179870680        0.7407455750
 H         -3.8520617810        1.3555856240        0.4296518052
 O         -0.1768442322       -4.2667508353       -4.4709221486
 H         -0.1754866326       -3.5909431659       -5.1586591581
 H          0.6681623713       -4.7234130268       -4.5077668631
 O         -5.2398663449        0.9490343400        5.3696055884
 H         -5.9754270042        0.8735924261        5.9762546035
 H         -5.5977880533        0.7996667099        4.4556839921
 O          1.1719091940       -4.9703882668        3.8647979131
 H          2.0465136485       -4.5499405222        3.8422622831
 H          1.1343719148       -5.5927211088        3.1374650384
 O         -0.9013524884       -3.9828792528        1.9485329156
 H         -1.5880482615       -3.6796459309        1.3226159106
 H         -0.3337910520       -4.5723302352        1.4121896179
 O         -0.3770864515        2.7299943449       -4.4416547618
 H          0.4561125531        3.2392638144       -4.5489493418
 H         -0.9543170785        3.3443419470       -3.9447095849
 O         -0.9387833764        6.1543364353       -1.1100666966
 H         -0.3376729254        5.7734805767       -0.4554376628
 H         -1.8037206126        6.1829217451       -0.6619587615
 O         -1.8429154314        0.7686186848       -1.0090627048
 H         -2.2716620544        0.3321523088       -1.7539752204
 H         -1.4285355985        1.5907937715       -1.3007846899
 O         -5.2618075139       -2.1261275910       -5.3328737069
 H         -4.4912374919       -1.7031704937       -5.7435986123
 H         -5.8140426674       -1.4195470782       -4.9698361431
 O          0.8580518116        0.6903578783       -6.0415413437
 H          1.6983146301        0.7931958732       -5.5572033010
 H          0.2803735375        1.3752622120       -5.6910649168
 O         -4.6338746522       -1.9440038103        2.1848934187
 H         -3.7176626410       -2.2077102118        2.3531373589
 H         -5.0709984541       -2.6519127662        1.6703368752
 O          4.9819685287       -1.1697269601       -5.0934967992
 H          5.5973939959       -1.9001952874       -4.9660642521
 H          5.3556920247       -0.4523316618       -4.5177776115
 O         -2.1623238800       -1.9489219586        3.3331188333
 H         -1.5472435983       -1.7689256291        2.6050364608
 H         -1.7575296468       -2.6574996268        3.8757266541
 O          1.8953215938        4.1057142303       -4.2078690148
 H          2.7232058446        4.1020178694       -4.6960262359
 H          2.1236573137        3.6775004866       -3.3446617876
 O         -2.7002517907       -3.1166961676        0.0941919910
 H         -2.3363032275       -3.3772976338       -0.7692295080
 H         -2.4533077254       -2.1888218188        0.2481888014
 O         -4.2082781442        1.4042727694       -3.6126850198
 H         -3.6870472877        0.6454906300       -3.2992969742
 H         -3.7849929147        1.6907669059       -4.4371032149
 O         -4.6600644408       -0.2590042149        0.0449789650
 H         -4.6199731239       -0.7583385567        0.8846663791
 H         -5.1022180869       -0.8556731908       -0.5854267986
 O         -2.6246886544        1.9739282023       -5.8181366981
 H         -2.8108037849        2.6063149895       -6.5120590500
 H         -1.7879975969        2.2473193080       -5.3969610262
 O          4.8377395164       -4.9515808736       -0.1039257231
 H          4.9190886142       -4.3481215915       -0.8808239881
 H          4.7196249879       -5.8356251340       -0.4521288939
 O          3.1582729730        1.3662233497        5.5651290176
 H          3.2104142557        0.4034720610        5.5335359495
 H          3.9411508136        1.6860436709        5.0806748372
 O         -0.2503255720       -1.5600650507       -3.1820303159
 H         -0.1793466932       -1.7355820019       -4.1445810818
 H          0.2164150780       -0.7108478353       -3.0273985774
 O          0.8158488066        0.8454206449       -2.8125398887
 H          1.6861172546        0.8579047205       -3.2573290041
 H          0.2774038380        1.5042494672       -3.2859527628
 O          1.3679090112        2.2801362483        3.8763016928
 H          0.7823053758        1.5136368281        3.6730341817
 H          2.0240416054        1.9546624237        4.5417759749
 O          6.5754324665       -1.5440668318        0.3102542574
 H          6.8561065088       -0.7880453335        0.8614106337
 H          5.5913310334       -1.4289347222        0.2474910181
 O          1.4736679862        6.4125684528       -2.6806521123
 H          0.5664902655        6.5038533331       -2.3643686306
 H          1.4858533859        5.7179837876       -3.3603725197
 O          2.9002756913       -1.4208696203       -2.0821275455
 H          2.6566548845       -1.4661434372       -3.0211938876
 H          3.6779413687       -2.0046181188       -1.9861961831
 O         -6.6220946057        2.9857427694        1.9279421252
 H         -7.5261767187        3.1512660768        2.1922586464
 H         -6.3763988606        2.0970639609        2.2950826082
 O          7.9529587310        1.6742559596       -0.5296197756
 H          8.7800069185        2.1176922557       -0.3403080816
 H          7.6267174777        1.3250115233        0.3190815175
 O         -5.9176560594        0.6283107483        2.8575804564
 H         -6.4363052858       -0.1258748037        2.5028215416
 H         -4.9750663424        0.4740849756        2.6048775933
 O         -1.8214382498        4.4061317404       -2.9541356117
 H         -1.6009400511        5.2384961254       -2.4981470468
 H         -2.6938105497        4.1112324903       -2.5833317452
 O          6.9394999833       -2.6847495938       -3.7149395570
 H          7.2828331805       -1.9626181320       -3.1559395723
 H          7.6733397597       -3.2794538039       -3.8709107433
 O         -3.0999936713        2.4654508670        4.4570163198
 H         -3.4809202861        3.1048393177        3.8192253581
 H         -3.8402793336        2.1197201376        4.9746725480
 O          4.5745836428        3.1274899605       -4.2435795681
 H          5.2910127835        2.8244164860       -4.8049324559
 H          4.9749708594        3.1756700198       -3.3518502134
 O         -0.2567125907       -1.7348527293       -5.8550346898
 H         -1.2107288504       -1.5999011688       -6.0100238218
 H          0.1456137018       -0.8622013228       -6.0550473386
 O          1.1194888179       -3.4891048594       -1.7983484682
 H          0.4324799440       -3.0472822092       -2.3267905829
 H          1.7668036007       -2.7888189580       -1.6023958604
 O         -2.8248044500       -0.8162658144       -5.7673333013
 H         -2.7887628232        0.1146787917       -6.0246012605
 H         -2.8150213495       -0.8169514936       -4.7861081914
 O          2.8176301223        5.4355829854       -0.6496504653
 H          2.1186385125        5.4247032492        0.0231898935
 H          2.4415398412        5.9339385754       -1.4169446538
 O         -4.0769674227        3.9634035222        2.3899232627
 H         -5.0438668589        3.9522237925        2.4016957245
 H         -3.8602190629        3.2749979626        1.7072096696
 O          0.7171893458       -1.9245157016        5.8575490846
 H          0.1899819961       -1.1390784995        6.0771880266
 H          0.1054550763       -2.6736440593        5.8891468275
 O         -6.1961763019       -1.7955972362       -1.6052168030
 H         -6.2347751455       -1.2292359772       -2.4112838540
 H         -7.0794771891       -1.6978008385       -1.2092584056
 O          5.0055677483        2.0549765615        3.7200069904
 H          5.9517825385        1.9597198544        3.8309219103
 H          4.8398156893        2.9841882223        3.4253113259
 O         -7.4628846541       -1.2950760267        1.7942946020
 H         -7.1043488511       -2.1838406980        1.6888572955
 H         -7.9570847275       -1.1149414312        0.9830858762
 O         -1.0326534521        2.0708573219        1.5065563284
 H         -0.9851141444        1.4198560240        2.2283113488
 H         -1.0488481283        2.9564836276        1.9225581153
 O         -4.0443563192       -5.4023695533        0.7796693974
 H         -3.7733886394       -5.5551057486        1.7118061659
 H         -3.5715616624       -4.5986086021        0.5093392900
 O          7.6624123233       -0.7272487929       -1.9541132346
 H          7.2438184767       -1.1386683309       -1.1570961529
 H          8.0461540101        0.0954469037       -1.6197821679
 O         -4.4933363162       -3.3924990958        4.5953883988
 H         -4.1593432912       -2.8053452609        5.2823845438
 H         -4.8453602080       -2.8243334909        3.8934488142
 O         -6.4230480118       -0.1297684075       -3.6910868024
 H         -7.1914894573        0.3480913318       -3.3433973871
 H         -5.6840250331        0.5120119879       -3.6752070495
 O          2.4947024602       -1.9816414809       -4.7469074317
 H          1.9058044656       -1.8321755808       -5.4893977272
 H          3.4048051012       -1.7258769654       -5.0181193154
 O         -0.6860187293        3.6699603485        5.0588772517
 H         -1.4853387703        3.1202048663        5.0607331340
 H          0.0589670877        3.0933506553        4.8096117546
 O         -3.3076412841       -0.9603762210        5.6267477952
 H         -4.0064548406       -0.2883269929        5.5224611215
 H         -3.0173548253       -1.2244346080        4.7361014710
 O          5.8448399417        0.6566860213       -3.4350512509
 H          6.5647066090        0.1947045760       -2.9720938761
 H          5.1988331563        0.8749920136       -2.7309046585
 O         -1.2768854190        4.5049825294        2.6325379748
 H         -2.2274870051        4.6554241537        2.6060722926
 H         -1.0362162375        4.3568018907        3.5791615765
 O          2.2869793163        3.0675820776       -1.8081888620
 H          2.6142361184        3.8547086513       -1.3287231364
 H          1.3266864568        3.0065991259       -1.6053414742
 O          2.6798668443       -3.6343771416        0.8302213645
 H          1.9103957433       -4.2000222762        0.6886624015
 H          3.4454376138       -4.1535241869        0.5106576866
 O          5.2623250507        4.9503815183        0.1894516072
 H          5.7505624704        5.7725804921        0.2447210323
 H          4.3619794332        5.1804437603       -0.1436994442
 O         -6.2565900842        1.8766157268       -0.5958456547
 H         -6.3753538374        2.3919541367        0.2175530828
 H         -5.7079338793        1.1068651269       -0.3527966472
 O         -8.2545294080        1.1934391312       -2.0944210346
 H         -7.4896655912        1.5013129808       -1.5270178706
 H         -8.8124815934        1.9570778283       -2.2393455898
 O         -3.3517919358        5.5661411222        0.0344399479
 H         -3.7881343285        5.0317117347       -0.6406606144
 H         -3.6235756308        5.1942890305        0.8829664210
 O          1.8527247327        4.9278587852        3.2967202266
 H          1.5881764671        5.4871495071        4.0265828096
 H          1.6203995923        4.0188457025        3.5514077329
 O          3.2169655427        0.2509627556        2.6149929343
 H          3.0850968259       -0.3618211024        3.3579254001
 H          3.9097844059        0.8663520802        2.9035294034
 O          3.9989818187        0.9965396567       -1.5012543527
 H          3.3433265031        1.6861586905       -1.7122032815
 H          3.5641447081        0.1227286781       -1.5510423719
 O          0.7640759274       -2.0171087910        3.0997605727
 H          0.8798073093       -2.1658233824        4.0523479375
 H          0.3029609035       -2.7961115881        2.7501146615
 O          4.8281528477        2.1133141740        0.7394139979
 H          4.6149093210        1.6173105825       -0.0878463164
 H          5.1694768915        2.9724104459        0.4726670863
 O          6.8420618777        0.6927710570        1.8106088127
 H          6.0258523224        1.1758586001        1.5603167528
 H          6.5930272633        0.1511995947        2.5824490730
 O          5.9388065017        3.2217331537       -1.8976535517
 H          6.6313701848        2.6300537163       -1.5732259040
 H          5.8241864712        3.9223127704       -1.2429065691
 O          2.7592011729       -4.4635807366       -3.6836429280
 H          2.1149934940       -4.3452319330       -2.9549606865
 H          2.6617527199       -3.6556235930       -4.2204751301
 O         -1.8850132756       -4.0950227837       -2.3178565087
 H         -1.2661940271       -4.2045518382       -3.0590442364
 H         -2.7503053746       -3.9103832557       -2.7170402963
 O          5.9023253686       -1.0339880848        3.6965909749
 H          6.0376540043       -1.9302543921        3.3700102815
 H          5.1147351957       -1.0589631542        4.2515448636
 O         -4.2526441070       -3.0226385648       -3.0719121529
 H         -4.6355292369       -2.8797286758       -3.9717024345
 H         -4.9781276514       -2.8634136282       -2.4532435967
 O         -1.7804988540       -6.3265167027       -0.6735044309
 H         -1.8802134528       -5.6506848646       -1.3660319631
 H         -2.6036602730       -6.3070743623       -0.1631407747
 O         -3.9784111209        3.4877718205       -1.8086803593
 H         -3.8075555099        2.9991496055       -0.9704864609
 H         -4.3345614173        2.8195167775       -2.4130155932
 O          4.5178398541        4.5072615787        2.8947464513
 H          3.5733230130        4.7313791140        3.0009610584
 H          4.7433104993        4.6551773880        1.9665536724
 O         -8.6812170077       -1.0760253393       -0.7216204264
 H         -8.6397622069       -0.2311205231       -1.2182996837
 H         -9.5037691780       -1.5066339318       -0.9543530070
 O         -6.0684537817       -3.6526202629        0.7144225960
 H         -6.0506190339       -3.3375041587       -0.1944809306
 H         -5.5228924253       -4.4690642495        0.7368896666
 O          5.9552876886       -3.5205617674        2.0842310746
 H          6.2987050750       -2.8388761379        1.4707681434
 H          5.7328695358       -4.2556280224        1.5000501946
 O          3.2280534479       -1.3871712082        4.8281656414
 H          3.3411249275       -2.2227367920        4.3165905859
 H          2.4525575338       -1.5580991939        5.3825245773
 O          3.5176909836       -3.5604963973        3.3413290503
 H          3.0705321508       -3.4349451210        2.4750173899
 H          4.4575485575       -3.6506880293        3.1061849794
