  312
       -524.28740077
 H         -0.8907752801        0.2213130140        1.6274946756
 C         -0.3505903684        0.2123822082        0.6863832625
 H         -0.8566357895       -0.4555219084       -0.0081540475
 C          1.0868960375       -0.2351453810        0.8831710319
 H          1.1424951975       -0.9932194946        1.6539047894
 H          1.6733527341        0.6300905307        1.1833032855
 O         -0.3983973744        1.5392226953        0.1818800623
 H          0.1164100313        1.5537520923       -0.6392049072
 N          1.6175518869       -0.7816827122       -0.3769312862
 H          1.1575348189       -0.3184137432       -1.1877020326
 H          1.3736937787       -1.7941814842       -0.4340250786
 H          2.6442213519       -0.6227368005       -0.4731215205
 O          0.4960619048       -3.2424897705       -0.2624571854
 H          0.9197957239       -4.0961045562       -0.4524194145
 H          0.1736884953       -3.2594056479        0.6598571037
 O          2.0607738858       -2.1984570024       -2.7179365699
 H          2.5729325355       -2.6000276491       -1.9904109158
 H          1.5692029780       -2.9306764147       -3.1213997033
 O         -0.9033674713       -2.4038089556       -2.3846304976
 H         -0.6183651288       -1.4637644127       -2.3608036219
 H         -0.4796660447       -2.8298486161       -1.6187239599
 O          0.8583938013       -4.5575902333       -3.5224446876
 H          1.0827402552       -4.8881852523       -4.3928902873
 H         -0.1136698247       -4.7265636802       -3.4000998737
 O         -3.8775525142       -0.2056981220       -4.2755842805
 H         -4.1556148581        0.6330280082       -3.8580025407
 H         -2.9691482812       -0.0518942100       -4.6171255431
 O         -2.9756032245       -0.4162851205       -1.0980240155
 H         -2.7139498333        0.3299342967       -1.6532589105
 H         -3.8645092500       -0.6813682509       -1.3648139063
 O         -4.5979437602       -0.1866474461        1.6578067875
 H         -4.7681775258        0.4971011860        0.9907298237
 H         -4.8374406218       -1.0266947200        1.2349216963
 O          3.5327775620       -3.2409549511       -0.7572408289
 H          4.4991407086       -3.1257229610       -0.8713046805
 H          3.3495740179       -3.1000518570        0.1964897351
 O          1.9895350609       -5.3602634907       -1.1803197241
 H          2.7080706696       -4.6983169319       -1.1066084567
 H          1.5740747417       -5.2281758094       -2.0518521450
 O          3.5750376631       -4.2987916690       -4.5612666816
 H          3.3518344695       -4.6995884978       -3.7190741764
 H          4.4964255974       -4.0015551082       -4.4842239800
 O         -0.1893364058        3.6552820342       -1.7185059372
 H         -0.0661423926        4.2631613499       -2.4656619923
 H          0.5888336685        3.0561282989       -1.7639564212
 O          5.9909466635        3.5814081816        0.8279082220
 H          6.5279743478        2.7683004710        0.7563735875
 H          5.5434624236        3.5373414576        1.6930126440
 O          1.4246974698        0.2337534853       -4.5777645846
 H          1.6285755676       -0.6584261467       -4.9101192329
 H          2.2789337849        0.6962676514       -4.5376065676
 O          2.9471755918       -0.7462777851        3.3481884564
 H          2.2543814789       -0.0785361758        3.4910342782
 H          3.3669530037       -0.8454883208        4.2261948563
 O          8.4823647378        0.8222521969        2.7927956667
 H          9.1773058961        1.3923172940        3.1199508523
 H          7.7098554848        0.9478553521        3.3830925422
 O          2.8612600301       -3.1345000126        1.8295557709
 H          3.6360012273       -3.6528884519        2.1298113421
 H          2.9317291695       -2.2818377459        2.2845985707
 O         -0.9894129252        6.9774515653       -1.5708139419
 H         -1.7486321152        6.3872904101       -1.4359828083
 H         -0.3929722031        6.7616904159       -0.8323952504
 O         -8.6738327119        0.7741441353       -1.3801480068
 H         -8.2452975141        0.8934124775       -2.2596101037
 H         -8.8629261559       -0.1732738380       -1.3324001065
 O         -2.3428498610       -5.1156474442       -0.5590967369
 H         -2.2150056626       -4.1935537146       -0.2701779699
 H         -1.9089939824       -5.6533709422        0.1214220369
 O         -2.0277045195        1.8502026005       -2.4829584087
 H         -1.4676083237        2.5774479096       -2.1374198368
 H         -2.1822817596        2.0661850610       -3.4146283068
 O         -5.6379014583       -0.0345641780        4.1749791108
 H         -5.5940622618       -0.9197672747        4.5686668371
 H         -5.2615768589       -0.1242654088        3.2753907600
 O         -0.8375477869       -3.3036777425        5.5830549892
 H         -1.4360695037       -2.5417811936        5.5082123297
 H         -1.2459580741       -3.9834770437        5.0256043070
 O          0.1813891364        3.0023657200        2.4478035535
 H         -0.2228913188        3.8869950632        2.4330385474
 H          0.1827588072        2.6584709159        1.5378884652
 O          6.0751811318        1.5752874275       -3.2100156488
 H          5.7548015976        2.0849518741       -2.4435272045
 H          5.2993829611        1.5454559116       -3.7991438791
 O          4.5913465807        0.9282775690        1.9599610585
 H          4.0301503636        0.2069272731        2.3042047764
 H          5.1159060562        1.2200872384        2.7306368005
 O          0.1783558267       -0.8349461075        3.7675666593
 H         -0.5298258433       -0.1852769513        3.6635884665
 H          0.3337343613       -0.9171494719        4.7221979272
 O         -7.4170340238        4.3459292103        1.7159419367
 H         -7.9925711807        4.8322637147        2.3058009316
 H         -7.0641910111        3.5791641472        2.2203047575
 O          4.2932222984       -0.9901976023       -3.3625779478
 H          3.4139029209       -1.4373495995       -3.2945356971
 H          4.1851957521       -0.2460900664       -3.9640003938
 O          4.1899915681       -0.0898397457       -0.8364598099
 H          4.3072036963        0.8729768285       -0.8815877247
 H          4.3631142376       -0.4392359039       -1.7356688463
 O         -5.7315538543       -0.8850932287       -1.5691759961
 H         -5.7887250132       -1.0332895374       -2.5171898731
 H         -6.5830841519       -1.2175160468       -1.2064591417
 O         -1.3944606146        0.2234131410       -5.1223326616
 H         -1.0113952656       -0.6910360283       -5.0790070326
 H         -1.2515724763        0.5187171676       -6.0201436868
 O         -4.8568717849       -2.8028134958        0.7401389208
 H         -3.8692012887       -2.7197030436        0.6637427189
 H         -5.0714166256       -3.3069702503       -0.0782224148
 O         -0.6840667843        1.2503699948        6.1310763729
 H         -1.0901692832        1.2599398381        5.2316925655
 H         -1.3999921143        1.4601748065        6.7317141326
 O         -2.6570254692       -1.2583561385        5.3244895484
 H         -3.5074040563       -1.7348492239        5.3686759797
 H         -2.8726814189       -0.3243992866        5.4992901746
 O          4.5278051568        3.5865899064        3.1292396931
 H          4.4034016480        3.2774672680        4.0301675462
 H          3.7689776500        4.1347211156        2.8923177871
 O          2.7045656312        5.0384342912        1.5365041109
 H          1.8640339193        5.2601923022        1.0835179770
 H          3.4025407564        5.4149125461        0.9794169281
 O         -2.8210176698        2.6453429988        0.3204882817
 H         -1.9681928771        2.1796776787        0.2116523545
 H         -3.4958482111        2.1281768031       -0.1468073431
 O          5.6899947642       -1.6315309142        3.8040139806
 H          5.2435347159       -2.3245503191        4.3245401237
 H          5.2903712307       -1.6617389953        2.9118503177
 O         -7.2468760366        0.3896471101        0.9393715288
 H         -7.3970387559       -0.5034476165        1.2804333932
 H         -7.8341910988        0.5106385836        0.1748755828
 O         -0.0283642576        0.0696102053       -2.3791546235
 H          0.5177848217        0.1022031861       -3.1923505098
 H         -0.7693150635        0.6925797515       -2.5170427296
 O         -0.4443441352       -2.2382848981       -5.0739510076
 H         -0.5223689968       -2.4949318630       -4.1358906597
 H          0.4844028652       -2.3225285818       -5.3187262069
 O          6.9593847455       -4.2502245006        1.0040123287
 H          7.4897913109       -3.5500093124        1.4085171983
 H          6.6690190722       -3.8949815843        0.1465935506
 O          7.0286197374       -0.4394540527       -1.6721813364
 H          6.6353463605        0.2092247582       -2.2914266485
 H          7.1132910951        0.0546376297       -0.8328194948
 O          4.5889328636       -0.5289675684       -6.5126765785
 H          4.7719303601       -0.6533107419       -7.4436512140
 H          5.4689705346       -0.4746110844       -6.0721229292
 O         -1.0840921888        5.4061510238        2.4242309557
 H         -2.0780259866        5.3879289256        2.4817564362
 H         -0.7919817847        6.0683515562        3.0500571355
 O         -2.2873303562       -2.5636615788        0.3494484412
 H         -2.3860070120       -1.8166959938       -0.2691224072
 H         -2.0678671959       -2.1855323697        1.2224212723
 O         -3.9794211494        4.5850901175       -3.2333500958
 H         -3.4655631809        4.7504786483       -2.4075616657
 H         -4.8543827574        4.9637048126       -3.0567708467
 O         -1.6935325688       -5.0888563779       -3.2027007340
 H         -1.8872482750       -5.1880437134       -2.2499373032
 H         -2.2822519153       -4.3939769657       -3.5174943664
 O          4.5716801029        2.6290734678       -1.2558695469
 H          3.9908116923        3.3475684727       -1.5459207929
 H          5.0445881163        2.9692124984       -0.4710545673
 O          2.7492168818        3.7679839933       -4.6949397324
 H          1.8008861950        3.5278893991       -4.6523090862
 H          2.9477152612        4.1863532586       -3.8434103724
 O          2.6479253086        2.4258272371        0.8649999974
 H          3.4302274934        1.9967456559        1.2603696211
 H          2.6648885460        3.3585124311        1.1479458787
 O          6.1250795295       -2.9697716110       -1.2986627131
 H          6.4090295104       -2.0351885030       -1.3316202437
 H          6.1071471525       -3.2531032086       -2.2317077155
 O          1.6270134317       -3.2642756085        4.4056164181
 H          0.8293994319       -3.3275059865        4.9639838331
 H          1.7213044131       -2.3328904475        4.1649496661
 O         -7.3197504014        1.0315280504       -3.6645423679
 H         -7.1064956037        0.1511256502       -4.0047375374
 H         -6.4662282779        1.4842910448       -3.5342924351
 O          4.2473881444       -3.5934657604        4.9919172872
 H          4.5994243933       -4.2016460779        4.3255007384
 H          3.2823758952       -3.5943488655        4.8353726304
 O          1.5557837238       -5.6070206290        1.5158701912
 H          1.9213872728       -4.7353818378        1.7338683320
 H          1.7801988009       -5.7610176557        0.5858015481
 O         -7.2018903556       -3.5865891877       -2.7209017000
 H         -6.4267619082       -3.9984199852       -2.3037950228
 H         -6.8554348933       -2.9747021911       -3.3822584868
 O          6.8990972378        1.0331293698        0.5826169527
 H          6.0293384361        0.8150262496        0.9818127750
 H          7.5587781279        0.9010533770        1.2831581492
 O         -2.8758645510        5.0451647670       -0.8590151956
 H         -3.6481895602        5.3824993102       -0.3819681510
 H         -2.6941664257        4.1730806186       -0.4479063888
 O          0.4252564946        5.4664576738        0.1865559197
 H          0.1788818992        4.7395569342       -0.4270652897
 H         -0.2241875217        5.4548523223        0.9098343827
 O          4.7569614839        5.7875148683       -0.1939679574
 H          5.3177496095        5.0489123910        0.1113100540
 H          5.2846699607        6.5819529494       -0.1162645244
 O         -1.5237208467        1.3463050448        3.6123109745
 H         -2.4136771163        1.6569427169        3.3756115430
 H         -0.9004607746        1.9828564467        3.1973613158
 O         -2.3267011553       -1.2564315956        2.6381359511
 H         -3.0876717516       -0.7357860713        2.3361230985
 H         -2.4118222001       -1.3308656932        3.6051234911
 O         -6.2189719358       -1.4431344214       -4.4627707587
 H         -5.3201741708       -1.0607395047       -4.5620681822
 H         -6.4655414467       -1.7920541673       -5.3193985100
 O         -3.7192535896        1.2621428206        5.5638732424
 H         -3.5756821817        2.0711138887        5.0670237025
 H         -4.5040355156        0.8457609783        5.1475018051
 O         -5.0618639124       -2.5174123770        5.1482110166
 H         -5.3827163086       -3.0657611105        5.8628978682
 H         -4.9201663502       -3.1290961260        4.3643042831
 O         -4.6510143495       -4.0888796404        3.1434913501
 H         -3.7075532781       -4.3396054379        3.2478976849
 H         -4.7213432900       -3.6847190637        2.2598618532
 O         -3.6757136017        5.3013373200        2.6661025826
 H         -4.1901777593        5.5286412019        1.8821774121
 H         -3.7920413534        4.3397516029        2.8102442345
 O         -3.7907772094        2.6051432915        2.7934011099
 H         -3.4515799135        2.5986919572        1.8691403392
 H         -4.7374294608        2.3687857604        2.7430431380
 O          4.0148825361        1.7656266584        5.5233949570
 H          3.1887875318        1.7624329179        5.0000136649
 H          3.9747605076        0.9403816451        6.0232146956
 O         -4.8288397151       -4.2001101749       -1.4895449828
 H         -4.3446812909       -3.5953102508       -2.1000295936
 H         -4.1584942644       -4.8377485547       -1.2034208264
 O         -3.4105152017       -2.6691337980       -3.1028531393
 H         -2.5055018241       -2.5577713290       -2.7355747689
 H         -3.6077524821       -1.8215801396       -3.5271075913
 O          3.8367158834        1.4353263933       -4.7345278872
 H          4.0504222566        1.1214161804       -5.6239731735
 H          3.4915705469        2.3739248258       -4.8034094791
 O          6.9465002735       -0.0949758105       -5.3369637497
 H          7.5274397665       -0.7425734387       -4.9096239629
 H          6.8611731023        0.6263163183       -4.7012820468
 O         -8.1192008539       -1.8935183030       -0.9074530577
 H         -8.1072472931       -2.2795687121       -0.0234233912
 H         -7.9685895784       -2.6221239787       -1.5529823244
 O          0.7533085975       -1.0218752535        6.4446701173
 H          0.2271206853       -0.2060572400        6.5559373061
 H          0.2121242549       -1.7678271007        6.7193405683
 O         -7.3220670422       -2.2830090815        1.7448398273
 H         -7.4338824084       -2.7283377518        2.5847117097
 H         -6.4291109804       -2.5127104582        1.4278779287
 O         -6.4588441295        2.1134904430        2.7556806846
 H         -6.5021237983        1.5792992337        3.5589169573
 H         -6.7379741256        1.4939942855        2.0380661269
 O         -2.0353169575       -4.6314548574        3.3996784852
 H         -1.8320592907       -5.4411030880        2.9083148456
 H         -1.4840902017       -3.9542648055        2.9477688530
 O         -5.1211372080        1.4854628683       -0.5390861648
 H         -5.4568868068        0.6147051685       -0.8498677705
 H         -5.9024863195        2.0675775299       -0.4624483502
 O         -0.1487718171       -3.0859817298        2.3369831129
 H         -0.2761605527       -2.2056443779        2.7442924816
 H          0.5947534298       -3.4725742190        2.8298461187
 O          6.1701051823        0.9762361538        4.1317194174
 H          5.5339329621        1.3723929310        4.7575664780
 H          6.0165662633        0.0085667340        4.1721518222
 O         -7.2956839155        3.0638238361       -0.7035588344
 H         -7.9682466758        2.3952692693       -0.9076237019
 H         -7.5325660934        3.4843080704        0.1380742774
 O         -5.3216490076        5.5552661810        0.3422185612
 H         -6.0332903137        5.1528331112        0.8671687284
 H         -5.6951364773        5.6560583739       -0.5454423056
 O         -6.4720097644        5.1517280044       -2.2011635728
 H         -6.7740488637        4.3177316660       -1.7819776437
 H         -7.2281484197        5.5209177326       -2.6570043377
 O          2.3861002018       -2.0862596105       -5.6138376144
 H          3.1368377478       -1.6297449580       -6.0212786384
 H          2.7549208974       -2.9078324415       -5.2347974560
 O          0.2626774842        2.7675975905       -4.4217541789
 H          0.4120477041        1.8210216346       -4.5605293497
 H         -0.6236005054        2.9557262512       -4.7500868937
 O         -2.4828176749        3.0973085792       -4.9515845163
 H         -2.9392035661        3.8001062021       -4.4571928117
 H         -3.1271481254        2.7180583832       -5.5496389532
 O         -0.9961348693       -6.3681378221        1.5320443182
 H         -0.0658301826       -6.0396791839        1.5740683642
 H         -0.9403067556       -7.3232090238        1.5333643241
 O          5.9105323508       -3.0405998557       -3.9796759146
 H          5.3897918544       -2.2175147224       -3.8467754517
 H          6.8187135517       -2.7607713540       -4.1489758439
 O          4.8879270749       -4.7505343355        2.5492279900
 H          5.6855948023       -4.5433710244        1.9933025649
 H          4.6644577715       -5.6632476089        2.3652700859
 O          5.1647822520       -1.7085960991        1.1537476443
 H          6.1251371184       -1.7629759873        1.0787157206
 H          4.8585550941       -1.0833750125        0.4765514737
 O          7.8307957430       -1.8457650527        2.1064001800
 H          8.3603352286       -1.0500896569        2.2280423576
 H          7.2535507063       -1.8868162972        2.8900216075
 O          8.3476478156       -1.7482796766       -3.6279289409
 H          9.2694174335       -1.9420162447       -3.4615994890
 H          7.9993018025       -1.2924436636       -2.8325822052
 O          0.6324532530        5.7469185176       -3.2271779427
 H          0.0186589480        6.3260143887       -2.7054956385
 H          0.6196407911        6.0502950311       -4.1336702023
 O          3.5022963796       -0.9797064590        5.9882277556
 H          2.5773743433       -1.0336593967        6.2789769952
 H          3.8786722924       -1.8627767360        6.0734123398
 O          2.9391685318        4.7180927827       -2.0786917983
 H          2.0971952268        5.1544175387       -2.2951391963
 H          3.4493581136        5.3333155807       -1.5365196694
 O          1.8078064682        1.9024127664       -1.5730594193
 H          2.2153964607        2.1230580295       -0.7004785206
 H          2.4767156528        2.0343270595       -2.2443067515
 O         -4.8367661687        2.0435648089       -3.1511846467
 H         -4.8108191339        1.8766006268       -2.1880153408
 H         -4.5197951339        2.9631313864       -3.2558169745
 O          1.6613907982        1.5716081080        4.2168205722
 H          1.2920171198        2.1602668241        3.5367797849
 H          1.0122244702        1.5277947528        4.9265500034
