  536
       -906.15259602
 H         -0.8005570502        0.5811046132        0.0396229614
 C         -0.9075480008       -0.4835976813       -0.1486961117
 H         -1.6582356715       -0.6403602544       -0.9172029893
 C         -1.3366192242       -1.2157661313        1.1316588878
 H         -1.7619503269       -2.1807018941        0.8669879787
 H         -2.0987066396       -0.6212355595        1.6242261162
 N         -0.2610663164       -1.4591179107        2.0811850121
 H          0.5271393316       -1.9059921028        1.6195969278
 H          0.0626996836       -0.5911401814        2.4873179716
 O          0.3171919215       -0.9873668093       -0.6658516167
 H          1.0325611048       -0.6586563249       -0.0824229520
 O         -2.1858864550       -0.8601060337        4.1823526379
 H         -2.0443086041        0.0807168753        3.9376488921
 H         -2.4424030027       -0.9132646189        5.1185772132
 O         -0.0343630508       -3.2634953674       -3.5506828515
 H         -0.9625879882       -2.9755437342       -3.5099949992
 H          0.0168735165       -4.2105903615       -3.8017673932
 O          5.5249096185       -5.7329717969        2.0707577974
 H          4.7783237771       -5.4499222556        1.5105641574
 H          5.1578982455       -5.8734735549        2.9681302763
 O          3.5059333271       -5.0295760830        0.3934474551
 H          3.5684508753       -5.1213878398       -0.5678934294
 H          3.0113082279       -4.1978824355        0.5618078185
 O          5.6420281829        0.0555993837        6.6929553183
 H          5.1389913050       -0.7124762350        6.9983173765
 H          6.5003472733       -0.2680993941        6.3892620496
 O         -3.5310074508       -3.5130826462        4.8393967956
 H         -3.3901877336       -2.9574295060        5.6164031675
 H         -4.0988116570       -2.9934728537        4.2370497697
 O         -1.7016431774        1.8463839245       -3.1347098924
 H         -0.8842548698        1.9197735260       -2.6006700616
 H         -2.3437719196        1.3464453237       -2.6017614248
 O         -0.3609091799       -3.7594408136       -0.7694348770
 H         -0.0745093326       -2.8367740034       -0.8439322288
 H          0.0508403942       -4.1160326831        0.0422492720
 O         -1.2094131275       -3.5012252702        3.4075415478
 H         -0.8948044128       -2.6110536705        3.0591044144
 H         -1.9846789614       -3.3350792694        3.9785190727
 O          0.9049842417        3.8973171782        3.1177999804
 H          1.8179220662        3.7809987970        3.3912362060
 H          0.7745376947        4.8534219743        2.9693814616
 O         -0.9004405598        7.0803437047       -2.2895988884
 H         -1.0354892515        7.1684909080       -3.2364869167
 H         -0.3497052084        6.2725588551       -2.1813624386
 O         -2.2578914115        4.4391948496       -3.0321326859
 H         -1.7238413973        4.9029950775       -3.6885554591
 H         -2.1275848759        3.4766059738       -3.1919136780
 O         -2.1977295185        2.6278729622        0.7673888098
 H         -1.2915908118        2.3829357630        1.0569452058
 H         -2.7905625549        1.9234083915        1.1282710035
 O         -3.9473702884        4.0882414133       -0.7239962374
 H         -3.2856993795        3.5618596726       -0.2515358602
 H         -4.1263589168        3.6144118095       -1.5644314737
 O          0.3173061221       -1.5126739138        5.0539434561
 H          1.0112388890       -1.2814200825        4.4058256889
 H         -0.5376370512       -1.3805396085        4.6064040469
 O         -1.4617386922       -6.6789145505       -0.0702179724
 H         -1.7763964476       -5.9586702876        0.5117340090
 H         -1.6060054907       -6.3486718412       -0.9842734113
 O         -3.5871464651        0.2923737074       -2.0441660985
 H         -3.9469114795       -0.1385515724       -1.2385992246
 H         -3.2627057224       -0.4523535489       -2.5819496654
 O         -4.3172031718       -1.1885942450       -0.0026434474
 H         -3.8538954449       -2.0255745945       -0.1920548982
 H         -5.2620950763       -1.4151882829        0.0370255846
 O          2.8897519743       -4.5138130298       -5.1349018731
 H          3.7842725079       -4.2142642594       -5.3748321097
 H          2.9630907393       -4.8158787217       -4.2116554100
 O          3.8949363668       -0.8910782729       -0.4774196457
 H          4.5078498340       -0.3672356349        0.0625318949
 H          4.3858489340       -1.6970549121       -0.7081620445
 O          0.1246946009       -0.5000524160       -3.3266251817
 H         -0.7515097992       -0.8889099303       -3.4223786000
 H          0.3623263874       -0.6245413197       -2.3930863960
 O         -2.6515962197       -1.6620183639        6.7675031381
 H         -3.4492476941       -1.1729401512        7.0928681441
 H         -1.8984451605       -1.1823810496        7.1378582589
 O          2.5190689120        0.7296369910       -2.1513611161
 H          1.7895832138        1.3156646792       -1.8737663661
 H          2.7688754435        0.1357294734       -1.4243138887
 O         -1.6591880023       -2.3963187251       -5.7990681875
 H         -1.7698954241       -1.4408762156       -5.6493473475
 H         -0.7789447560       -2.5271695854       -6.1564363505
 O         -6.4634008934       -0.1442658603        2.2270331002
 H         -7.0470583939       -0.5820662476        2.8881251920
 H         -6.6273782144       -0.6120312332        1.3926090403
 O          0.7733533147        4.9786303513       -2.5460863259
 H          0.4361869235        4.9952950143       -3.4572101604
 H          1.6480505616        5.4204411324       -2.5796180785
 O          0.8471296696        1.1226172811        3.8857909303
 H          0.6061157220        1.7200609195        4.6347449626
 H          1.6205660007        1.5348231378        3.4660863322
 O         -6.1767837148        6.5894737549       -0.3212479611
 H         -5.2710102798        6.8868376458       -0.4511458353
 H         -6.3306520588        5.9117764138       -0.9955388531
 O          0.7148819634        1.7124047586       -4.6454579613
 H          0.9537371156        1.2621213551       -5.4743198589
 H          0.4590063029        0.9806890103       -4.0422222908
 O          1.4082385608       -2.2627033815       -5.4819994316
 H          1.9895678967       -3.0476821458       -5.5240732813
 H          0.7914479806       -2.4724188647       -4.7404014775
 O         -8.1674263685        1.8693717940        1.8353793308
 H         -7.3864397511        1.3079433474        2.0152157486
 H         -7.9424835098        2.4968828795        1.1290190664
 O        -10.2329816681       -2.6003351349        1.4143034947
 H        -10.5559388502       -2.4354838793        0.5163876498
 H        -10.2450639139       -1.7531056822        1.8906944401
 O         -4.4476521476       -1.7726891202        3.0318016936
 H         -3.6101295676       -1.3409660116        3.2829075550
 H         -5.0941954516       -1.0645395418        2.8598475666
 O          4.5882952209       -0.1037659352        4.1888515169
 H          4.8020661276        0.0134439502        5.1341600827
 H          5.4041212224        0.0942154281        3.7131677242
 O          0.3721995158        2.3170684801        1.0751484865
 H          0.9716972434        1.5492043707        1.1924693096
 H          0.6025580545        2.9635364665        1.7796478024
 O         -0.1939827741        5.8767712214        5.3715029446
 H          0.0736892826        6.2552291601        4.5210281752
 H          0.6130868884        5.5306733582        5.7707804489
 O          7.8035933480       -2.1931525845        1.1950876548
 H          7.9472695971       -2.7129904678        0.3794286062
 H          7.4725611035       -2.8535220169        1.8427381991
 O          3.0551778765        6.3930307278       -2.7200056435
 H          3.6049696066        6.1019279100       -3.4657564147
 H          3.6205854921        6.2845032475       -1.9341477366
 O         -9.0952099072        0.1387548969        0.0157851620
 H         -9.0998432964        0.7071452269        0.8086911621
 H         -8.4848579128       -0.6063154942        0.1734750059
 O         -1.6967304762        1.6069470973        3.3042484292
 H         -1.8825366643        2.3640007136        3.8686424133
 H         -0.7272504570        1.4838607465        3.3289614881
 O          8.5038897061        0.1866434799       -0.1063588678
 H          8.6656272328       -0.5912113144        0.4311334663
 H          7.7719416399       -0.0468752755       -0.7027017574
 O         -1.7240307802       -5.5485037284       -2.4386886811
 H         -2.5675834290       -5.0972061813       -2.6519039782
 H         -1.1030099476       -4.8534878071       -2.1719294360
 O         -2.6271162207        1.4606146686        6.0971196083
 H         -2.4408472660        2.4035813561        6.0640682632
 H         -1.8121062397        1.0259863705        6.4362649611
 O         -5.5457947246        4.3533770770        2.7370241975
 H         -5.5287588051        4.1147411043        3.6871164427
 H         -4.6223332835        4.6014769485        2.5373588999
 O         -5.7313603921        2.7061921191        0.6778102935
 H         -5.1816655419        3.2893495048        0.1139351849
 H         -5.8436837446        3.2315871162        1.4983987728
 O          0.1878258778        2.7103324506        5.8585541615
 H         -0.5414594532        3.2468510726        5.5210325438
 H          0.9399773740        3.3269463339        5.9568142284
 O        -10.8456359021        2.5980264738       -2.9694622068
 H        -11.3028585483        3.0014622201       -3.7057742932
 H         -9.8776579352        2.6910910536       -3.1467821847
 O         -2.3626651037       -1.9447234689       -2.9920824299
 H         -3.0416423913       -2.0428814669       -3.6850224287
 H         -2.6622976154       -2.5294234854       -2.2649220019
 O         -0.4734194233        0.1537808686        6.9863636935
 H          0.1517590240        0.8722258181        7.1210224697
 H         -0.0402743092       -0.4326379225        6.3272226684
 O         -7.9469947346       -3.8175128637        0.9165303427
 H         -7.4643113901       -3.8572739979        1.7667714325
 H         -8.8413836945       -3.4713551239        1.1382979924
 O         -2.5977031201       -4.8826182107        1.6225017825
 H         -2.9837775395       -5.4792304357        2.2929943032
 H         -2.0741189881       -4.2509694799        2.1558273747
 O          2.3646199595        7.2134182551        0.6659041055
 H          2.0150203871        7.7669871232       -0.0711639736
 H          3.2778866295        7.0079412515        0.4348381092
 O         -4.6088101574       -0.0384288867        7.3971133240
 H         -5.4397900532       -0.0107408420        6.8868294740
 H         -4.0882335105        0.7240345865        7.1038987119
 O          0.1664491134       -7.2090281833        2.0680160997
 H          1.0316743126       -7.4888495710        1.6828759589
 H         -0.4868964887       -7.3697364970        1.3714184894
 O          3.0526255642       -5.2183554547       -2.4171099197
 H          2.3483779885       -5.8582527581       -2.2100732630
 H          2.6630930044       -4.3235362846       -2.2481876909
 O          7.4326858925       -0.2176065687       -5.6929191406
 H          6.5233727689       -0.3870957479       -5.9974353684
 H          7.5172009293        0.7411179850       -5.6042705021
 O          2.0230927038        0.2714504383        1.0836362982
 H          2.1537920070       -0.2158431968        1.9212925314
 H          2.8565207794        0.7436544733        0.8862676859
 O          3.6935672173       -1.9246789119        6.4349047899
 H          3.0361183658       -2.5613116633        6.7425020547
 H          3.1776659107       -1.0991663086        6.2827553346
 O          8.5908976941        2.3429856392        1.9495779318
 H          9.3628507593        1.7518232736        1.8621153677
 H          8.0568813518        2.2536677547        1.1340358261
 O          0.9609868049       -6.8030543549       -1.7649815334
 H          0.2249276372       -6.7227129173       -1.1442652398
 H          0.5925405042       -6.6162186809       -2.6442213225
 O         -6.5538278828        4.5998115473       -2.3488277084
 H         -6.0430965766        3.7712869662       -2.3084987748
 H         -5.9763477067        5.1816298837       -2.8915670724
 O         -4.7737909328        2.5834030055       -2.7266882257
 H         -4.5016867247        1.6755817071       -2.4983940402
 H         -4.3708558608        2.7800178956       -3.5922185713
 O          4.1953335009        2.4489502963        6.3377650154
 H          4.6734652084        2.7904326988        5.5572062676
 H          4.8004503850        1.8283930152        6.7607080394
 O          7.2850032361        4.6900273803        2.8268312802
 H          7.0643436660        4.9620903978        1.9145961877
 H          7.9284435872        3.9776199105        2.7079664294
 O          2.3390324973       -1.2064513462        3.3101143279
 H          2.4091058236       -2.1811886421        3.2040853835
 H          3.1527158353       -0.9073261387        3.7474563715
 O          4.1653161170        1.8101845989        0.4418290617
 H          3.8176553793        2.3506055027       -0.3021420490
 H          4.0418273470        2.3667617522        1.2291264696
 O         -3.7322621772        2.9994246277       -5.1887958863
 H         -4.1027705024        2.1201208192       -5.4704320130
 H         -4.2416352785        3.6777056800       -5.6323027064
 O         -3.9939854006        0.9359831690        1.5803939040
 H         -4.7391171664        1.4995666672        1.2706786627
 H         -4.0852747262        0.0926346996        1.1004455140
 O          4.4151714702       -1.8728848019       -3.2238435618
 H          5.1296643048       -1.4619394140       -2.7087056664
 H          3.9668798388       -1.1566157775       -3.7288704524
 O         -1.9581947904       -6.5163058203       -5.1253151768
 H         -2.1892444644       -6.5268539639       -4.1883376139
 H         -2.5280879068       -5.8422452995       -5.5271419809
 O         -0.5088481587        5.5864987407       -4.8773503510
 H          0.3383286127        5.8750557944       -5.2500134385
 H         -0.7433178668        4.7813167726       -5.4004877680
 O        -10.8862255620       -2.4883080277       -1.2897834958
 H        -10.8431872350       -1.5957760706       -1.6851168573
 H        -11.6999665161       -2.8921421078       -1.5884856261
 O          2.3541154989       -7.4991082160        0.6399612503
 H          2.0278198513       -7.5661800526       -0.2646774822
 H          2.8055511584       -6.6360401184        0.6889403679
 O         -1.1230541586        4.7017846000       -0.6233641742
 H         -1.3954211551        3.9044489150       -0.1513626584
 H         -1.5377734622        4.6535666647       -1.5134045584
 O         -4.9967474396        3.5683145999        5.2040393174
 H         -4.8759849380        2.6499422785        4.8715313637
 H         -4.1078427738        3.9096100767        5.3621984418
 O         -3.4262925934        6.7668865412       -1.1322389101
 H         -2.5490774680        6.9034569071       -1.5297937293
 H         -3.5177430861        5.8064715024       -0.9741922407
 O          3.6872184595        4.2771201778        1.6560753978
 H          2.7669530257        4.2591541383        1.3487276993
 H          4.1473840311        4.8434617272        1.0116024457
 O          7.3470603137       -4.0304752507       -3.7269983148
 H          7.8179128609       -3.1789587619       -3.7138600339
 H          6.7089500495       -3.9326463756       -4.4538305511
 O          4.6074719816        2.3331595740       -5.2168754099
 H          4.7081429668        1.6933291597       -4.4876259065
 H          4.0748525373        1.9104889792       -5.9267195716
 O          4.9332652828       -2.7824848595        2.2317413840
 H          4.8593331521       -1.8377710803        2.0210864415
 H          4.0462212528       -3.1639363651        2.3777573325
 O          4.7321040165       -5.6010939700        4.6310208986
 H          3.8019343384       -5.6826827067        4.8812772375
 H          5.0061735511       -4.7030156703        4.8711309822
 O          2.1276831839       -2.8068473205       -2.0689659868
 H          1.3365773449       -2.8036961300       -2.6389726864
 H          2.8696601663       -2.3557712010       -2.5086506703
 O         -4.1993082065       -6.1018027472       -0.4896717313
 H         -3.4357602618       -6.6816460315       -0.3991120062
 H         -4.6983702715       -6.1822119591        0.3464691328
 O          9.5684870475       -1.5847473877        3.1707615298
 H         10.0443528038       -2.4187961205        3.2584178628
 H          8.9536583073       -1.7302722338        2.4233631556
 O         -3.9048726354       -4.2507040298       -3.1765224399
 H         -4.7515004533       -4.0093538509       -2.7742086464
 H         -4.0081214002       -4.3618205869       -4.1350715292
 O         -1.8704680857        0.3123669579       -5.4788123365
 H         -1.7729760548        0.8415230522       -4.6643510840
 H         -2.7536872331        0.4875953714       -5.8186564339
 O         -5.5232806355       -6.2028721766        1.9123899657
 H         -4.9795125293       -6.4006407584        2.6826928021
 H         -5.5785713379       -5.2247232846        1.8615394793
 O         -2.9828206375       -3.4166353214       -0.7720973746
 H         -2.0324548507       -3.6388970133       -0.6685737597
 H         -3.4688799996       -4.2524837508       -0.8254610970
 O          1.3117356146       -3.3438094101        6.7331489037
 H          0.9741505414       -2.6661282439        6.1110401886
 H          0.5049098584       -3.6876782719        7.1558027189
 O         -6.3783636921       -0.8067217809       -2.4673850021
 H         -6.4372382234        0.1039992038       -2.1188589029
 H         -7.1668545758       -0.9074265610       -3.0447732845
 O          7.6209276851       -1.0646073224        5.0374587679
 H          8.4041201765       -1.3378976265        4.5299508191
 H          6.9540619963       -1.7775063039        4.9406649311
 O          2.2283023239       -2.6706710656        0.5842318230
 H          2.8348092645       -1.9123537298        0.5122698282
 H          1.9619346941       -2.8020367557       -0.3416463319
 O          6.5516940850       -0.9198442507       -1.7371796474
 H          6.3771429457       -1.7157790030       -1.1986938518
 H          7.2270750104       -1.1660660775       -2.4088000254
 O         -8.9916164156        3.6898501074        3.5772650347
 H         -8.6231570331        2.9967406132        2.9858385371
 H         -8.7834963605        4.5308745258        3.1575896389
 O         -5.0167337921       -3.6756162809        1.1819912190
 H         -4.9890372103       -2.9951008008        1.8754268283
 H         -4.1101036414       -4.0313615982        1.1485405433
 O          7.0182078605        4.9904740832        0.1510095510
 H          6.8414872931        4.0311731619        0.0155569424
 H          7.9403990468        5.1072608071       -0.1200247143
 O          5.5231349094       -3.0317093224       -0.4541236115
 H          5.4054708228       -3.2125360544        0.4926730497
 H          5.5885374207       -3.8873189439       -0.9248457978
 O         10.0298356682       -4.3036539095        2.7654466762
 H          9.0487427074       -4.3360405881        2.8258805444
 H         10.3404729939       -5.1947992508        2.9221254340
 O         10.2936661040        0.1206439816       -2.5348007244
 H         10.7833780193        0.9464181639       -2.5290926211
 H         10.5152167302       -0.3147926256       -1.6857031149
 O          0.6231068532        0.0185775785       -6.7584079485
 H         -0.3122838337        0.1391064817       -6.5344036744
 H          0.8769808939       -0.8544032248       -6.4186301619
 O          2.9208673858       -0.2256564300       -4.5917177610
 H          2.5592176476        0.2020553106       -3.7887233049
 H          2.2698483874       -0.9011271664       -4.8761805560
 O         -4.6239102863       -1.5331715910       -4.3229005411
 H         -5.1281852671       -2.1863688948       -4.8423587487
 H         -5.2045370420       -1.2900718769       -3.5680943496
 O          6.7563742640        2.3526398957       -0.0961095561
 H          5.8491449396        2.0260953980        0.0784521436
 H          7.0460169329        1.9973467884       -0.9486491007
 O          8.2858609380       -3.8582416804       -0.8618386692
 H          8.1018273616       -3.9212754945       -1.8047594328
 H          7.9930341098       -4.7225048504       -0.4750348957
 O         -7.3921896741       -5.0528534833       -4.3041223038
 H         -7.9666344888       -4.5213999610       -3.7290747235
 H         -6.9456227607       -5.6715852863       -3.7057112827
 O         -6.0549171995       -3.7872629882       -1.4470052993
 H         -5.7315499137       -3.7721373816       -0.5306944917
 H         -6.1963929162       -4.7335656947       -1.6604749535
 O         -4.5537278969        5.8935455486       -3.5249269438
 H         -4.3437977961        6.5334378165       -2.8273030511
 H         -3.8238605493        5.2504507880       -3.4759437931
 O          5.7805872750       -0.3637768229        1.3406547666
 H          6.5129543315       -0.9781414190        1.1590391431
 H          6.1581611322        0.3375042382        1.8874987548
 O        -11.0856885409        2.0461530149        2.4997266790
 H        -10.5470933995        2.6987756411        2.9709613393
 H        -10.9924034815        2.2488704361        1.5521275772
 O        -10.3430571779       -0.3839102614        3.0742848031
 H        -10.5480183241        0.5590872326        2.8128609197
 H        -11.0598730872       -0.6375061668        3.6559159133
 O         -7.7092773512       -6.4391184566        0.1745192226
 H         -7.0475182632       -6.6563821438        0.8435697215
 H         -7.9242371526       -5.5022831340        0.3415687437
 O          3.0031758723        1.4503717333       -7.1726177489
 H          2.5312005447        2.2807194777       -7.3871146024
 H          2.2904538075        0.7993242549       -7.1090796903
 O         -7.9839824356       -1.3392618061        4.0122222175
 H         -7.6273065881       -0.7922198528        4.7498116382
 H         -8.8568236024       -0.9810172564        3.7652467353
 O          2.6181311647       -3.8034033778        3.0603225064
 H          1.9761208373       -4.0775342640        2.3773867923
 H          2.4490261679       -4.3793731164        3.8366738505
 O         -6.0936431812       -3.2894952706       -5.7390551093
 H         -6.5445652207       -3.9935659711       -5.2001883522
 H         -6.7788010359       -2.8840484940       -6.2698706114
 O          3.1956706067        3.4996469403       -1.3196672570
 H          2.9664224039        3.4802642048       -2.2681160263
 H          2.4595540991        3.9326785626       -0.8401605593
 O         -8.5272733959       -3.3581487748       -2.4759304639
 H         -9.2650924672       -3.2535906934       -1.8579109680
 H         -7.6978083949       -3.4208757538       -1.9602544425
 O         -7.1624168877        1.4392258092       -1.2965021815
 H         -7.9333784618        1.0337838994       -0.8409593647
 H         -6.6803198689        1.9437193953       -0.6196666286
 O         -4.5366938772        1.1324125288        4.2100515124
 H         -3.7373340830        1.0705081139        4.7587818773
 H         -4.2710082633        1.0657982952        3.2707106017
 O          1.9749533568       -5.3250851042        5.1295365328
 H          1.1271119484       -5.7769512238        5.0017249773
 H          1.7976561076       -4.6276458263        5.8066806963
 O          0.4406649778       -5.7623143756       -4.3096177072
 H          1.1372580156       -5.6787134702       -4.9664091823
 H         -0.3729966836       -6.0987469064       -4.7500133336
 O          0.5403637118        6.5405307917        2.7215252083
 H         -0.2574312907        6.7075592174        2.1949294771
 H          1.2807858312        6.9080590005        2.2192681088
 O          2.3808427417        0.3712100332        6.0836427375
 H          1.8901787708        0.4721950553        5.2518671135
 H          2.9319489796        1.1631400756        6.1878149055
 O          0.4616527988        2.3988173402       -1.6170004024
 H          0.6209273588        3.3012332591       -1.9526636164
 H          0.4385560880        2.4680406760       -0.6412321514
 O          5.0615743670        1.2751244795       -2.7771354265
 H          5.6199865596        0.6257630660       -2.3292221356
 H          4.1486783741        1.1558037560       -2.4477278806
 O          5.5098671067        3.1748823067        4.0851239232
 H          6.0710739007        3.8702331399        3.6787921314
 H          6.0104192059        2.3532299440        3.9289359626
 O          1.3865708812        3.5956580740       -7.4191112667
 H          0.4779008748        3.3913106568       -7.1683976417
 H          1.6512209990        4.3518693044       -6.8682972338
 O          5.6734884901        3.9662903855       -2.4925548231
 H          5.4902067192        3.0132973604       -2.5662699848
 H          6.6340586641        4.0900180020       -2.5904211742
 O         -8.5945968918       -1.0925246761       -3.8956864036
 H         -8.6407148508       -2.0165596920       -3.5770243029
 H         -9.2942539362       -0.6251535439       -3.3946106284
 O          4.7653344606        5.2696620819       -4.6013970935
 H          4.7605343374        4.5772091546       -5.2667742617
 H          5.1232486761        4.8304365704       -3.7904337544
 O          1.4705912163        8.3490700482       -1.5565734364
 H          2.0268591362        7.8221766881       -2.1515802868
 H          0.5532782786        8.0908991986       -1.7410085730
 O         -2.8868144720        4.6200777102        2.4447413832
 H         -2.4738832287        5.4187665263        2.0626918713
 H         -2.6094017786        3.8642989095        1.8838692762
 O         -7.6711504925        5.6982966823        1.7961786537
 H         -6.9016565995        5.2798466742        2.2306669091
 H         -7.2728115192        6.3058560009        1.1529807424
 O         -2.1351724154        4.0763362065        4.9429609394
 H         -1.5532621559        4.8237726875        5.1975525302
 H         -2.4237770186        4.3099233108        4.0324097872
 O         11.3014667521       -0.9885747203       -0.2592518050
 H         12.2454961924       -1.0175619732       -0.4142138433
 H         11.0377424070       -1.9335544819       -0.0640331032
 O         10.6883342986        0.5960480095        1.8878392691
 H         10.3950133338       -0.0467258594        2.5527021466
 H         10.8893558131        0.0561902226        1.1006925715
 O          1.4354149440        4.7637330647        0.2280113592
 H          1.6983710972        5.6977931361        0.3557702551
 H          0.5342274341        4.7741328409       -0.1317444693
 O         -1.2424352327       -4.1291076519        7.1511312293
 H         -1.7995829604       -3.3426942072        7.0610171283
 H         -1.4413007977       -4.7117544524        6.4145753282
 O          6.9462160476        0.9713183258        3.4170978594
 H          7.6536516000        1.4846378492        2.9522604098
 H          7.3684692726        0.3568231211        4.0477849999
 O         -7.3351558919        0.9779708668       -5.3305501251
 H         -7.6270785104        1.6810313766       -4.7260490861
 H         -7.7778742143        0.1777693230       -5.0173894625
 O          7.3760018156       -4.1159660736        2.9759454512
 H          6.7100323801       -4.7303822447        2.5753059492
 H          7.0073007872       -3.8763917213        3.8326530846
 O         -0.6783203217       -6.0007441213        4.4189147665
 H         -0.3877740586       -6.5460239113        3.6693324773
 H         -0.7562230018       -5.0878767844        4.0874663286
 O         10.7065938450       -3.4580834638        0.2231241485
 H          9.8920099669       -3.6712128900       -0.2736349120
 H         10.5387334202       -3.7412451599        1.1384798661
 O          4.5329473739        5.6856382448       -0.5187279415
 H          4.3137751327        4.8301052680       -0.9558132758
 H          5.5004682638        5.6636116847       -0.4231866578
 O        -10.5913756152        2.6412107402       -0.1277867434
 H         -9.7487994765        3.1281450452       -0.1178575568
 H        -10.9098974719        2.6809633059       -1.0348278593
 O         -7.6456237416        2.7578102206        5.8043572362
 H         -6.8188063036        3.2548684247        5.7727956799
 H         -8.2098584705        3.1158232954        5.0958673861
 O          3.6184411502        5.5153183806        4.0017693282
 H          4.5195264329        5.6936443472        4.2690299812
 H          3.6783055827        5.0665026632        3.1282410228
 O          7.3412064528       -6.1440470653        0.0541778029
 H          6.7859696938       -6.1494005226        0.8497651437
 H          6.7187211144       -6.1899956630       -0.6868195410
 O         -4.7067777341        0.6648101428       -5.7957120115
 H         -5.6711714402        0.8309226847       -5.7711711166
 H         -4.6043201301       -0.1445887344       -5.2405919409
 O         -6.6747769761        0.2876614689        5.6185370602
 H         -7.1426855890        1.1385557372        5.7790557190
 H         -5.9661480422        0.5153275538        4.9859973600
 O         -7.0319685221       -1.5580419125       -0.0007442855
 H         -6.8597364614       -1.5224590605       -0.9664366914
 H         -7.3023960590       -2.4778250580        0.2481911253
 O         -8.1654442013        3.8761678947       -0.0729948063
 H         -8.0890824544        4.5881226137        0.6027819486
 H         -7.7152704789        4.1984129047       -0.8621417026
 O         -3.4354182892       -6.0790226283        3.8803901584
 H         -3.6344810379       -5.2387404225        4.3286431086
 H         -2.5636002381       -6.3441795701        4.2151577470
 O         -1.0717953250        3.2515533874       -5.9297197005
 H         -1.9996387879        3.0800471577       -5.6991890886
 H         -0.5278709708        2.6603749938       -5.3659011879
 O          5.2770632023       -3.2244768914       -5.3395084810
 H          4.9851908000       -2.7721377538       -4.5130295127
 H          5.2999650755       -2.5274753158       -6.0055303625
 O          3.2658056285        2.0343574993        3.1541452306
 H          3.6523987059        1.2070720573        3.4920658263
 H          3.9207514319        2.7097009882        3.3977268549
 O          2.2462050031        4.4151634678        6.0268163349
 H          2.6986420805        4.8668321478        5.2835348324
 H          2.9116864080        3.8238580700        6.4034368592
 O          9.6684584714        4.7628949425       -0.5558340700
 H          9.8866543894        3.8009483579       -0.5209520441
 H         10.3567389254        5.2224618827       -0.0772070172
 O         -3.5516349343       -4.3622693816       -5.8631695273
 H         -2.9148312241       -3.6267017404       -5.9096009327
 H         -4.4090406764       -4.0177256578       -6.1456278563
 O          2.5513987374        3.4497389342       -3.9343851980
 H          1.8411252780        2.7973742361       -4.1237221912
 H          3.3535550828        3.1011224449       -4.3705587316
 O          4.8405617656       -0.6335157750       -6.4722283048
 H          4.5787481292       -0.1105109312       -7.2341426062
 H          4.1619145803       -0.4408566229       -5.7997652129
 O         10.3276665394        2.1719183342       -0.5298729004
 H         10.8477934921        2.0089638791        0.2613110729
 H          9.5938989459        1.5244734740       -0.4766678059
 O         -6.3403268226       -6.3682722301       -2.1061848444
 H         -5.4535647669       -6.5061940057       -1.7320961321
 H         -6.9650285055       -6.5558220330       -1.3701354785
 O         -6.8398072549       -3.7258452443        3.3924047791
 H         -7.1663924917       -4.3750941662        4.0138337546
 H         -7.2201075251       -2.8677022850        3.6590264069
 O          5.7068320105       -5.2438917897       -1.9408210813
 H          4.8144046561       -5.3548554377       -2.3050266611
 H          6.2764039319       -4.9062968717       -2.6559320649
 O          0.5477967059       -4.6413675577        1.5873093882
 H         -0.0405306259       -4.2034159549        2.2146713449
 H          0.4501549538       -5.6094693464        1.7385596954
 O          2.0890395630        5.4980127979       -5.5590504652
 H          2.9097565273        5.9898363475       -5.6232584918
 H          2.2670884799        4.7792563238       -4.8991293584
 O          8.3256499380       -1.5106162768       -3.5955096774
 H          9.1712398180       -1.1021612813       -3.3729760412
 H          8.0115547276       -1.0677652566       -4.4226519392
 O          7.8946357666        1.4901922178       -2.5215524202
 H          7.5830392330        1.5789553932       -3.4385783565
 H          8.6929884758        0.9368666346       -2.5366309478
 O         -1.6934577146        6.6253622542        1.1105155147
 H         -1.4064517001        5.9953583509        0.4102665573
 H         -2.3378413159        7.1975528859        0.6818884138
 O         -8.2208050743        2.7190507844       -3.3709894179
 H         -7.8562543541        2.1925601573       -2.6200546762
 H         -7.8192709415        3.5942763458       -3.2486603030
 O          8.3516210721        4.1188619457       -2.9070421242
 H          8.4051714738        3.1843485586       -2.6253785627
 H          8.8527970390        4.6174585516       -2.2521141542
 O          7.3061894732        2.4549959165       -5.0189918047
 H          7.6551992395        3.2987689492       -4.7134619190
 H          6.3490379245        2.5696698434       -5.1697494697
 O        -10.4546055291       -0.0033210222       -2.2672100418
 H        -10.7922984424        0.8618923910       -2.5517527600
 H        -10.0238570210        0.1662850366       -1.4041502459
 O          5.6179938355       -2.8963200457        4.8108957878
 H          4.9047523025       -2.5420086171        5.3824657071
 H          5.3147919139       -2.7797999905        3.8807416095
