  191
       -320.32493345
 H          0.1444139030       -0.9840001033       -0.1829652054
 C          0.4964988204       -0.5322897184       -1.1128418805
 H          1.4107776444       -1.0277668702       -1.4312440193
 C          0.7380773726        0.9657095860       -0.8937925240
 H         -0.2260848031        1.4516807697       -0.7566494127
 H          1.2226134201        1.3965602515       -1.7687762988
 N          1.5423907760        1.2675986142        0.2740416867
 H          1.0714706921        0.9188949268        1.1008395940
 H          2.4558842954        0.8337920418        0.2053802788
 O         -0.4541573075       -0.7601474900       -2.1395310188
 H         -1.2702701182       -0.2754565646       -1.8791098188
 O         -2.2608419858       -0.8321510598        1.4665624660
 H         -1.3373720265       -0.5765772211        1.6498563756
 H         -2.7604519317       -0.0062201787        1.3128488739
 O         -2.9091015318       -2.1494703144       -3.2410706723
 H         -2.1891481252       -2.6652467769       -3.6290107886
 H         -2.7440575873       -2.1796156449       -2.2723119168
 O          3.0071605940        3.1020660560        3.0687092130
 H          3.8702287913        3.5699316341        3.0876535277
 H          2.6275626710        3.3661854550        2.2003720964
 O         -7.6867814219       -1.6127406589       -1.1084498229
 H         -6.9939757978       -2.2612714995       -1.3662805554
 H         -8.5091881574       -2.0968936761       -1.0431833012
 O         -3.6176122511        1.4013699011        0.8762707631
 H         -3.5294635322        2.2404176270        1.3702931989
 H         -4.5407884219        1.3817347174        0.5644947543
 O          2.2928970662       -3.8390498443       -0.0433277886
 H          1.3667001911       -3.9142606173       -0.3524819795
 H          2.4247889851       -2.8969225502        0.2138730044
 O         -1.6557652772        3.5425032842       -0.0941021682
 H         -1.3481522299        3.4233844391       -1.0089860399
 H         -1.1456198169        4.2857480605        0.2676584466
 O          0.9957639046        2.5635461654       -4.0340316234
 H          0.7657674092        1.6860649940       -4.3986674475
 H          1.8587878280        2.4486675125       -3.6108189991
 O         -1.3783615163        4.5321502710        3.2835953086
 H         -0.8581795682        4.9192836305        2.5617198543
 H         -0.7792279973        3.8998554782        3.7228765164
 O         -0.1803516990       -3.9855460948       -1.0510992956
 H         -0.8850761069       -3.3242074043       -0.8596556075
 H         -0.1316664490       -4.0138451931       -2.0179090686
 O          2.1889972214       -2.0399220804       -4.5592166910
 H          2.5923197480       -2.6050667570       -3.8843823975
 H          2.8703755172       -1.3832748391       -4.7840071968
 O          5.8500236373       -0.6717527351       -3.1598336201
 H          5.4324689454       -0.5811711657       -4.0283087227
 H          5.0912898264       -0.6224434929       -2.5290137243
 O          4.6495452883        3.4863748370       -0.1728958363
 H          4.6298414868        2.5087249140       -0.0466209220
 H          5.1676005410        3.6303902269       -0.9668029795
 O          4.5322975408        0.8445151849        0.2593725530
 H          5.2723023487        0.2490787553        0.0824034289
 H          4.3490017554        0.7573825531        1.2164959678
 O         -5.1946716565       -1.1641515367       -4.3995347701
 H         -4.7936259856       -0.6049182369       -5.0693941829
 H         -4.4373811939       -1.5735110229       -3.9399180851
 O          0.4930281172        2.6241471388        3.9514045223
 H          1.4107362179        2.8975647494        3.7885721202
 H          0.1496764944        2.2754119986        3.0978541189
 O         -5.8322539174       -1.1053523023        1.0089201286
 H         -5.1933955223       -0.9659443673        0.2757892080
 H         -6.6964721476       -1.1072160432        0.5816768286
 O         -1.2973884792        2.9906692640       -2.7467195777
 H         -1.9168168197        3.2956039570       -3.4123930702
 H         -0.4248282236        2.8845855502       -3.1951065370
 O         -5.5671209991       -3.1153972149       -1.8855890660
 H         -5.4981647121       -3.2214506477       -2.8362424297
 H         -5.0040719063       -2.3388815092       -1.6639952386
 O         -5.1171537769        0.2137997934        3.2887780846
 H         -5.6293786178        1.0457928329        3.2116744556
 H         -5.3413896012       -0.2719403192        2.4743364287
 O          3.9347209557        0.0590253568       -5.0373837209
 H          3.8411149616        0.5462300865       -5.8552498718
 H          3.6826732243        0.6837779209       -4.3075369242
 O          0.4034599965       -1.0524334464        2.1443691012
 H          0.5175868217       -0.6136667516        3.0201813809
 H          0.0576947707       -1.9442022644        2.3472472988
 O          3.4486613070       -3.4189342993       -2.4037911052
 H          3.0434499411       -3.7544407347       -1.5688386221
 H          4.3978023470       -3.5923000796       -2.3353761291
 O         -1.7460145899       -0.4884850800        5.4175489951
 H         -2.0995087191        0.3105543186        4.9883046538
 H         -2.1940792160       -1.2238851544        4.9707757025
 O          2.0755128049       -3.8148168908        2.7414490818
 H          1.1315697994       -3.8579306759        2.9521779870
 H          2.1325870952       -4.0384871505        1.7955939739
 O          6.0008483308       -1.5627980947        0.2562197749
 H          6.0647975028       -2.1754104750       -0.4943906911
 H          5.5575634907       -2.0384261718        0.9770189784
 O         -4.5101738280       -0.7481824246       -1.2558813178
 H         -3.6732707075       -0.2593492587       -1.3759330305
 H         -5.1944312973       -0.2159928390       -1.7050595162
 O         -0.6952375572       -3.4357709104        2.8276223894
 H         -0.9859276271       -4.1272540705        2.1835937130
 H         -1.4618391274       -3.2449097743        3.3742850813
 O          4.0623843181        0.6603927144        2.8768564400
 H          3.5857890397        1.5040316263        3.0514470372
 H          3.6125855314       -0.0447935887        3.3733759257
 O          5.3953293680        4.1203099208        2.4502162122
 H          5.2192895688        4.0484769025        1.4964386424
 H          6.0135179262        3.4064251722        2.6530366924
 O          4.7564666294       -2.6920975862        2.4535025741
 H          4.6074924318       -2.1833721934        3.2602194871
 H          4.1478321324       -3.4383866804        2.5084912638
 O          2.7686832789       -1.4025496784        0.8986492756
 H          1.9352108822       -1.2273073178        1.3895176832
 H          3.4415789870       -1.6258337061        1.5577385955
 O          6.0218943919        2.0309964407       -2.4163997647
 H          6.2255591587        1.1577958742       -2.7836634028
 H          6.4893427788        2.0453583611       -1.5601936468
 O          6.2155655011       -3.0742998995       -2.0801752492
 H          6.1859376511       -2.2207130545       -2.5781368070
 H          7.0340454287       -3.5068792955       -2.3211991398
 O          3.6281378864       -0.8545454074       -1.7229131651
 H          3.4925265154       -1.7874459761       -2.0004441695
 H          3.5933820178       -0.8410082211       -0.7537599927
 O         -4.1842823520        2.2299773583       -3.3654523055
 H         -3.5943542259        1.5638168298       -3.7697313956
 H         -5.0435614029        1.8076350476       -3.2811181145
 O         -2.4271727917        0.8630108749       -1.4381983149
 H         -2.6989996544        1.2221276875       -0.5670861250
 H         -2.1936009441        1.6170550224       -2.0071240218
 O         -1.4540173064       -5.2477160913        1.0402864088
 H         -2.3721451342       -5.1616089691        0.7492965200
 H         -0.9124182069       -5.0408414323        0.2620103201
 O          0.2519205730        0.0278573587       -4.6018843033
 H          0.8875966921       -0.6547751730       -4.8568886055
 H          0.0467397615       -0.1759354259       -3.6643735496
 O         -5.0961731682       -3.4544181038        2.1897341934
 H         -5.4756487635       -2.6400195500        1.8100349197
 H         -4.4266550461       -3.1484732719        2.8250725375
 O          6.6201977487        1.5985074536        2.6128986918
 H          7.2370494459        0.8618483245        2.4849130698
 H          5.7543619037        1.2019446274        2.8171014732
 O         -6.1446836439        2.5828377942        2.5598542747
 H         -6.3554365384        2.4096532555        1.6311419548
 H         -5.3516502918        3.1385782207        2.5475843295
 O          0.0256761673        5.3738915063        1.0200529713
 H          0.8259926784        4.8047916332        0.8948935889
 H          0.3088832118        6.2763914202        0.8769780125
 O          7.3292396701        1.8652810614       -0.0358444943
 H          6.9543981277        1.9855041642        0.8554886925
 H          8.0054336415        1.1929579509        0.0731219534
 O          3.4120816364        1.5882031251       -2.9265771490
 H          3.3214452035        0.8143031204       -2.3429400685
 H          4.3011486012        1.9441026926       -2.7182145863
 O         -2.5858851471        0.2979366502       -4.4531112359
 H         -1.6632287432        0.3783121816       -4.7252458651
 H         -2.6335948340       -0.5337174881       -3.9448027694
 O          2.8963108641       -1.4962825884        4.0959931990
 H          2.5090984613       -2.3031416736        3.7143838497
 H          2.1516809353       -1.0071815893        4.4868546091
 O          0.7053693330       -0.0012836449        4.5666267104
 H          0.6824803132        0.9758491673        4.5193500837
 H         -0.1344588640       -0.2568139402        5.0116591728
 O         -2.8151333046        1.4381624027        3.7728509788
 H         -3.6559949059        0.9710349457        3.5469442486
 H         -3.0556633480        2.3127760479        4.0811290399
 O         -0.8788681973        1.6756313867        1.8740508813
 H         -1.1678568349        2.3312272406        1.2210316581
 H         -1.6077355700        1.5753529674        2.5147373749
 O         -4.2329792463        3.7855953096       -1.0771805478
 H         -3.3537780835        3.6947961237       -0.6685902736
 H         -4.1555403341        3.3814500421       -1.9577882065
 O          2.0806418934        3.7853201286        0.6527799729
 H          2.9505999475        3.8907436813        0.2326468277
 H          1.7987156845        2.8370422289        0.4394603675
 O          8.1060098029       -0.5045276824        1.5508798519
 H          7.3665252356       -0.8953594080        1.0369470847
 H          8.5085118999       -1.2205968883        2.0413360062
 O         -0.3124267798       -3.0615200190       -3.6442102115
 H          0.4467954477       -2.9693572893       -4.2296222936
 H         -0.2909724361       -2.2682161092       -3.0776139527
 O         -3.2822929228       -1.9678590725        3.6427733321
 H         -4.0031296848       -1.3636969200        3.8629648052
 H         -2.8823734583       -1.5817639360        2.8261851864
 O         -3.9589442678       -4.4219484638        0.0350852504
 H         -4.6303901328       -4.3028813541       -0.6492267638
 H         -4.3982843514       -4.1549905197        0.8832377672
 O         -2.3120754685       -2.4602968390       -0.6419552198
 H         -2.9161061257       -3.1902238610       -0.3723549262
 H         -2.3065155900       -1.8295797000        0.1084711101
 O         -6.5162011003        0.3921095029       -2.6359452162
 H         -7.1729651889       -0.1650572257       -2.1884464904
 H         -6.1878849078       -0.1501437843       -3.3858381399
 O         -3.6383537254        3.7929506509        2.1324610416
 H         -2.8114751209        4.0704231919        2.6010784946
 H         -3.7731834209        4.4263434049        1.4247559925
 O         -6.0134847180        2.0061925114       -0.2013084525
 H         -6.3987017511        1.6086614427       -0.9875413222
 H         -5.4764952408        2.7703971900       -0.5171341189
