  612
      -1033.77312433
 H         -0.2343145342       -0.2989720937       -2.4574223220
 C         -0.1245263888       -0.0452750191       -1.4048615159
 H         -1.0048387002        0.4732509420       -1.0359067043
 C          1.0887648105        0.8548761838       -1.2402731958
 H          0.9273920430        1.7805979526       -1.7845140813
 H          1.9780151248        0.3722139226       -1.6302641749
 O         -0.0270897551       -1.2275501350       -0.6279890310
 H          0.8384090707       -1.6617721084       -0.8189327107
 N          1.2854908627        1.1177554527        0.1899115564
 H          0.6958275808        1.8976513533        0.5504738895
 H          2.2685476326        1.3519130734        0.4238534512
 H          1.0463911778        0.2611469383        0.7399916300
 O          0.7663492897        3.3738363724       -3.6737502023
 H          1.5434533950        3.9521488531       -3.6636386370
 H          0.4487724912        3.4054035006       -4.5947261372
 O         -1.3015614926        2.5782934477       -0.9566493143
 H         -0.5763408823        3.2208556468       -0.8678847246
 H         -2.1360232285        3.0337913112       -0.7700652088
 O         -3.7624003741        3.7341176952       -0.7110884354
 H         -4.1164618054        3.9044475916        0.1708183750
 H         -3.9710906507        4.5120133659       -1.2569847009
 O         -5.9326048948        5.5589483163        3.7435265819
 H         -6.6837368538        5.8098922978        3.1476683914
 H         -5.2768582971        6.2806459590        3.6747227313
 O         -3.0565774640        0.2471287227        5.1160300506
 H         -3.5225193337       -0.1850792795        4.3747294803
 H         -2.1893450660       -0.1761539927        5.1692914981
 O          1.7079109759       -3.5285683715        1.3736405438
 H          2.5261780177       -3.0511015028        1.1925934132
 H          1.3093906821       -3.7471580212        0.5003012011
 O         -1.6192791657        2.1310860177        6.3344269673
 H         -1.0421865322        2.0102063856        5.5620561143
 H         -1.4655499711        1.3655754984        6.9070130531
 O         -1.7501073876        1.7047652662       -3.4083110356
 H         -1.5199363522        2.1306883661       -2.5511591775
 H         -2.3156945039        0.9408932435       -3.1689186949
 O          0.2248675253        0.7885281736       -4.8789081335
 H          1.0731535935        1.0375135999       -4.4789302271
 H         -0.4733468584        1.2398343993       -4.3502399729
 O         -2.0888052437        4.0104760483        1.5796105623
 H         -2.1092981322        4.4439348630        2.4494344912
 H         -1.1623962055        3.6908281486        1.5082954352
 O         -4.3576438435        4.1584178204        5.6768715789
 H         -3.6729161690        4.6739451216        6.1177172051
 H         -4.9172132047        4.7710083619        5.1810259186
 O          2.3014090618       -6.7606025003       -3.9151398974
 H          2.0633403305       -6.1852841731       -4.6562872997
 H          1.4407910352       -7.0143892958       -3.5361690099
 O         -4.1314336358        5.4549751220       -5.5324337831
 H         -4.0666181918        4.7218990985       -4.8739448176
 H         -4.9748494001        5.8754587280       -5.3282925068
 O         -6.7175910605        2.8440375840        0.4162357240
 H         -6.0801415055        3.2583440500        1.0208835390
 H         -7.5947529074        3.1225849624        0.6959892724
 O         -5.1974028260        1.1777294151       -4.3668578256
 H         -5.9715492178        1.6751666725       -4.6610114638
 H         -4.6070705912        1.8684772338       -4.0198734307
 O          2.4196796372       -2.1010004802       -0.9955586269
 H          2.4494129807       -1.7695085140       -1.9179027039
 H          2.8892071979       -1.4749809773       -0.4253452678
 O          0.0226673783        1.8790690358        4.1200158519
 H         -0.6361210128        1.2599059534        3.6948044515
 H          0.8308823294        1.3349434972        4.1843253718
 O          2.9738018588        1.7975279878        6.5982879320
 H          3.8755130875        1.6016061102        6.8586880016
 H          2.4451443205        1.0036495752        6.7891749994
 O          4.7109663845       -4.1006090800        2.0855381224
 H          4.5719015444       -4.1019401614        1.1068242688
 H          4.1530869518       -4.7988933737        2.4409633933
 O         -4.7909645335        4.0274920647        1.9205689749
 H         -4.0923673710        3.5483424122        2.3914843580
 H         -5.2505197347        4.5643869288        2.6059585341
 O         -4.9103785894        1.3918278519       -1.2742825102
 H         -5.1758825719        1.1729455298       -0.3690577957
 H         -4.4745671936        2.2658008348       -1.2047511688
 O         -4.8865955879       -4.7904876603       -0.8562626604
 H         -4.7865119065       -4.0757871982       -1.5318528104
 H         -4.7761940847       -5.5893362547       -1.3821215429
 O          0.2434306554        6.3338739413        1.3212801465
 H          0.9838616588        6.8527496904        0.9635331730
 H          0.5229920313        6.0171074021        2.1921813242
 O          0.6238165325       -4.4747286976       -0.8355917089
 H         -0.2870000455       -4.8058574165       -0.7412013954
 H          0.6541353269       -4.0758302523       -1.7299496563
 O         -2.8742586062       -1.0861369921        0.0130421323
 H         -2.7833664276       -0.1996254636        0.3873940870
 H         -3.8246567385       -1.1850246935       -0.2125123717
 O         -5.4323316922       -1.4585844875       -0.4736357266
 H         -5.7215198649       -1.1839826474       -1.3623512148
 H         -5.7165344811       -0.7654306121        0.1496980833
 O        -10.9101904186       -2.8685390552       -0.2743893800
 H        -10.5863557736       -3.4764882843       -0.9551104757
 H        -10.3260193922       -2.9620042079        0.4912006532
 O          3.4285241771        6.1909259548       -1.4442342117
 H          2.6665383809        6.2580041589       -2.0446161257
 H          3.4866121876        5.2431022953       -1.1819770899
 O          0.9959299656        1.4771412310       -7.3350986699
 H          1.6817834438        0.8109609425       -7.4901038380
 H          0.6541859737        1.2425143201       -6.4373822930
 O         -7.5950694449        3.3073271967        4.2743918054
 H         -6.8743173771        2.6751665531        4.0321151543
 H         -7.1792312594        4.1759999903        4.3188314850
 O         -5.4844724523        0.5154422164        1.3077804919
 H         -6.4204744471        0.7060463987        1.5406559305
 H         -5.1102881913       -0.0362384882        2.0196963025
 O          3.5412722392        3.6788528319       -0.5456029618
 H          4.4066730006        3.2434173648       -0.5888408090
 H          3.3569107101        3.8743615453        0.3951128557
 O          4.6168532165       -1.4299391258       -2.4049755981
 H          5.4343179211       -1.9377024737       -2.1656289133
 H          4.8147653511       -0.9498970166       -3.2341723884
 O         -8.1621247484        0.2400410604       -4.4633073734
 H         -7.7136587919       -0.0074863532       -5.2873904369
 H         -8.6003330586       -0.5562728809       -4.1156415817
 O          6.1022351677        2.6075568562       -0.4530136059
 H          6.3818528765        1.7062802399       -0.6942584253
 H          6.0438519272        2.6585007812        0.5218509295
 O          2.0302552425        0.1329391731        4.1759099981
 H          3.0002357734        0.1442172310        4.0311517849
 H          1.8753899508       -0.1660393657        5.0889857593
 O         -7.1476989734       -4.4767185178       -3.1724337910
 H         -7.1240259093       -3.9696829884       -2.3326576394
 H         -7.1489006579       -3.8198564543       -3.8853210439
 O         -8.9197761554       -3.0754086187        4.6228137665
 H         -9.2075424405       -2.1733491345        4.8402053593
 H         -8.1442346626       -3.2244581238        5.1743967489
 O         -3.3025912431       -0.2369658596       -2.5880814930
 H         -3.9554189901        0.3429266613       -2.1403287659
 H         -2.8925014510       -0.7808815296       -1.8976013921
 O          5.2926300643       -0.3491871231       -4.7569350533
 H          5.0552942520       -1.1875317070       -5.2288830010
 H          6.2482097829       -0.4225968502       -4.5602015545
 O          0.8230408910       -0.8969425566        2.0053044929
 H          1.3346237448       -0.6157084927        2.7886572668
 H          1.0454750578       -1.8246844735        1.8388445048
 O         -7.4914569848        1.2735673023       -2.0500609782
 H         -7.6337488826        0.9728792899       -2.9638220506
 H         -6.5312624953        1.4000695663       -1.9212067146
 O          4.9615376436       -6.8354703965        0.5554176612
 H          4.1758762969       -6.4643661964        1.0137523829
 H          4.6633653127       -7.6608429874        0.1718223516
 O         -0.1988922828        3.8068176819       -6.1779579688
 H         -1.0899373146        3.3964963734       -6.0981817361
 H          0.2644706103        3.2975887903       -6.8490351663
 O         -6.9764905738       -0.7668884258        3.7529500447
 H         -7.7492169392       -0.4684629515        3.2496737537
 H         -6.4375568205        0.0443079198        3.8396776599
 O          4.2552690182       -4.0372918666       -0.5061465828
 H          3.6396822464       -3.3379271855       -0.7847109738
 H          3.8519544042       -4.8682882606       -0.8219197588
 O         -0.7045876603       -1.2701701692        5.1373648869
 H         -0.7575819723       -1.9505177605        5.8352329839
 H          0.0581128418       -1.5074291064        4.5943305911
 O          0.9242970083        6.4015036315       -2.4771663529
 H          0.7337270205        6.3204702554       -3.4311561121
 H          0.2898645040        7.0621806745       -2.1392082018
 O         -8.0864190282        0.5693201070        1.7705705622
 H         -8.2942628941        0.0880790439        0.9386517396
 H         -8.4877973986        1.4473894495        1.7198462960
 O         -4.9573318806       -6.0346846641       -3.3413705975
 H         -5.1722880293       -6.7337207297       -3.9563950346
 H         -5.7435655230       -5.4398251519       -3.3135700118
 O         -4.2083364850        6.0411388800       -2.1845640773
 H         -3.5649849144        6.4636819843       -2.7742495587
 H         -4.1267035469        6.4539374479       -1.3112844921
 O         -1.0423794906       -3.0591734399        1.0804224163
 H         -1.5397423725       -3.5798623536        0.4214448450
 H         -0.7966071760       -2.2330813123        0.6408293443
 O         -1.8145987567       -2.6365890720       -2.1294946791
 H         -1.2948720474       -2.1922047407       -1.4440750431
 H         -1.4618399990       -2.3307350969       -2.9811038970
 O         -8.6376169049        4.4633220833       -2.9464412440
 H         -9.1137984243        4.2617225142       -2.1332461787
 H         -8.9911263133        3.8430876150       -3.6151993923
 O         -9.4202664439       -1.8009799631       -3.1513492026
 H         -9.5662778183       -2.7367506553       -2.9720405709
 H        -10.1115522539       -1.3244001707       -2.6795952076
 O         -9.1296356937       -3.0043204072        1.9436059977
 H         -8.1885175162       -2.8906693420        1.7260966193
 H         -9.1338399161       -3.1886702584        2.9044488180
 O         -6.3957395345        5.8368039578       -4.0136444745
 H         -5.7745156279        5.8892740689       -3.2665795658
 H         -7.2785733762        5.8612211483       -3.6279551016
 O         -4.4460531686        0.5091202213       -7.3115340132
 H         -4.5804041258        1.4682175961       -7.2156938937
 H         -3.6304325263        0.4000032835       -7.8130137381
 O         -8.6197561914       -5.2882864317        0.3391527203
 H         -8.1310091975       -4.5472387140       -0.0834828404
 H         -9.0745708408       -4.8816456685        1.0856436165
 O          2.0606675208       -1.1278489072       -3.4743697801
 H          2.4797833617       -0.3221473699       -3.7919944724
 H          1.8762345680       -1.6612570671       -4.2677978216
 O         -2.2336250154       -2.6055103966        3.3818675399
 H         -1.6734690818       -2.0313201195        3.9399580601
 H         -1.7450017939       -2.7620041123        2.5474812223
 O          2.8587581478        1.2890502966       -4.5167679028
 H          3.5579560914        1.5085270469       -3.8606967036
 H          2.8314435681        2.0691196464       -5.1064281445
 O          4.6988583605       -2.6743729324       -5.7970342822
 H          4.0750338719       -3.0557784649       -5.1473060683
 H          5.5328072398       -3.1319645989       -5.6210606007
 O          4.7100162159        1.9393770130       -2.7915669178
 H          5.5593223040        1.6068669382       -3.0951405333
 H          4.4753888584        1.4809501516       -1.9485762069
 O         -1.4774158767        0.1675835615        2.8712627849
 H         -0.7615708066       -0.2981604709        2.4097690201
 H         -2.0111640449        0.6410272706        2.2018317227
 O         -5.3236859629       -0.7740716098        8.0704868718
 H         -5.2459038820        0.1259147463        7.7273853707
 H         -5.9596729135       -1.2345306470        7.4893700753
 O          0.9767981885        5.7460749949        3.9100182333
 H          1.0973021604        5.1139976784        4.6449988570
 H          1.7787144323        6.2798421747        3.8616210923
 O         -3.8968071597       -3.3337590212        1.1794021832
 H         -4.1632140838       -3.8792495143        0.4170053686
 H         -3.3734104762       -2.5938312103        0.8244998567
 O         -1.5329036943        5.5475241429       -0.5100350009
 H         -0.6551367384        5.6244257416       -0.1010280179
 H         -2.0419611326        5.0508628767        0.1604430919
 O          0.9352958373        3.8851945142        5.8800910788
 H          0.5837426098        3.2169440791        5.2709311130
 H          1.6956616207        3.4782337705        6.3057900502
 O          0.3483193358        3.0859573787        1.7431502981
 H          0.2995941382        2.7540666088        2.6614012356
 H          1.0920343950        3.7152495960        1.6896494290
 O         -3.1124067010       -5.2912183758        2.7517156719
 H         -3.2160885443       -4.4757344585        2.1991433539
 H         -4.0236461887       -5.3931976980        3.1102443837
 O          3.2288665571        6.9015948747        2.7463185604
 H          4.1861818774        6.7621203299        2.6883731539
 H          2.9807652277        7.4275102447        1.9698228288
 O         -2.9372617297        1.4513811946        1.0952977984
 H         -2.6522162245        2.3738552452        1.2293804199
 H         -3.8857156147        1.4034677567        1.2755247128
 O         -3.2641892932        2.5833851899        3.7369372895
 H         -3.4404145448        3.2117392618        4.4581886945
 H         -2.8863999289        1.7950856635        4.1698491539
 O          3.0456148546       -0.2612576308       -6.7973810289
 H          3.9350974534       -0.4302219152       -7.1092311279
 H          3.1290139462        0.2048150551       -5.9400931623
 O          1.0002182202       -5.0268474371       -5.6620534980
 H          0.0576666015       -5.0007978627       -5.8709817748
 H          1.3618263700       -4.1530973391       -5.8952487731
 O         -4.3237385230       -3.1007044422       -2.7494747115
 H         -3.3995721618       -2.9043204779       -2.4887714092
 H         -4.8100266850       -2.2542659442       -2.8102920336
 O         -0.8086120668       -1.9391596669       -7.1615095742
 H         -1.1745624561       -1.0252172700       -7.2294201887
 H         -0.8324582011       -2.3053800855       -8.0446350808
 O         -9.5083335940        2.5750588485       -4.7044034942
 H         -9.0656329667        1.7059869752       -4.6590699012
 H        -10.3311462666        2.4403872628       -4.1947400386
 O          6.9928929213        2.8881008166       -4.5492699645
 H          7.8845441419        3.2064204308       -4.3921992652
 H          6.3910283060        3.5821187310       -4.2267023983
 O          9.0106764550        4.1422640891        0.5719003595
 H          8.3882596362        4.4765568993       -0.0858882444
 H          8.7093567214        3.2354538238        0.8236597816
 O         -4.0389831767        3.5148028519       -3.6626680839
 H         -4.7471749565        3.7481416948       -3.0346197766
 H         -3.1819749040        3.7637975935       -3.2721023756
 O         -2.2759458438       -5.2874344173       -3.2317795367
 H         -1.9980972507       -4.8310955206       -4.0430935889
 H         -3.2046076163       -5.5414600671       -3.3503499181
 O         -2.4050098286        2.3939508075       -5.8651927377
 H         -2.3335885026        2.2266473800       -4.9027301566
 H         -3.3101058423        2.6939985284       -6.0577144461
 O         -3.3391645863       -0.9054474080       -5.2187404731
 H         -3.5282625041       -0.5890961334       -4.3171345509
 H         -3.7817904056       -0.2928902405       -5.8291956595
 O          0.7761518241       -3.6760567804       -3.3409648838
 H          0.7147697710       -4.3974193585       -3.9909314108
 H          0.2784466297       -2.9361084129       -3.7187745078
 O          1.5897750986       -2.3579667702       -5.8804108528
 H          2.2270010635       -1.7798502511       -6.3340639847
 H          0.7154735775       -2.1277429533       -6.2401394354
 O         -6.1993995369        3.9627554517       -1.9471313870
 H         -6.3750063816        3.4263079674       -1.1468778181
 H         -7.0571248169        4.0309532516       -2.4089605885
 O         -1.9427297275        7.9254678766        1.2821639081
 H         -1.1769077194        7.3163110695        1.3748199388
 H         -1.7439098578        8.4688414939        0.5157470954
 O         -1.7434978771        5.3162271563        3.9277849232
 H         -0.8307783168        5.6211975789        3.8206616954
 H         -1.8087348819        5.0630134657        4.8738441610
 O         -2.2665983513        6.7728562119       -4.0914926995
 H         -2.8962965847        6.5071008711       -4.7877785758
 H         -1.9430055078        5.9085258314       -3.7249081665
 O          5.8659979502        0.3804456304        6.2023862735
 H          6.7082200367       -0.0336178612        5.9441058778
 H          5.2920227183       -0.3658656093        6.4450538515
 O         -8.3991716397       -0.6736981940       -0.5428681573
 H         -7.9636506118       -0.0199405512       -1.1390600744
 H         -9.3395442636       -0.6453995807       -0.8007676084
 O         -1.2146100151        7.9159962608       -1.7062556247
 H         -1.6316621578        7.8758225429       -2.5750935858
 H         -1.5103469951        7.1132234661       -1.2314200466
 O          4.6932524767        0.1835203141        3.7970205824
 H          5.0648402853        0.4947318407        4.6369387255
 H          5.0582826611       -0.7243522054        3.6851708917
 O         -5.6665595814        1.5470047794        3.9984157732
 H         -5.5055601366        1.4809774621        4.9624164477
 H         -4.8146910925        1.8904453384        3.6484166799
 O          5.3443972692        1.7951370335       -6.4291413742
 H          5.2481030419        1.0218856110       -5.8380546251
 H          6.0423002608        2.3103457794       -5.9973026455
 O        -11.2914582385        1.9851298938       -2.7788560955
 H        -10.7161449577        2.3828775036       -2.0965192145
 H        -11.3887300591        1.0623868197       -2.5213091539
 O        -11.0045862932       -0.4062697530       -1.1931350117
 H        -11.1357270985        0.2189707684       -0.4579671055
 H        -11.1991137795       -1.3007771174       -0.8320555193
 O          9.6722565295        1.1624793484       -3.2285281101
 H          9.4670428366        2.1248054423       -3.2010414155
 H         10.5969280696        1.0804833824       -3.4713475965
 O         -0.7188456026       -7.5468948454        0.0312322213
 H         -1.6617334051       -7.7296349852        0.1131779426
 H         -0.5527727786       -6.7852552126        0.6182860647
 O          5.1847395906        4.5344964435       -3.3123258417
 H          4.8574384726        3.6742072095       -2.9827031186
 H          4.4083037841        4.9683169971       -3.6965006237
 O          5.8544448826        6.6646837519       -0.1967066372
 H          5.0296253830        6.6544426550       -0.7031409786
 H          6.4576321239        6.0679550631       -0.6698336657
 O         -4.2969344836       -1.0523931372        3.1361920547
 H         -4.8324309048       -1.6193175207        3.7011266659
 H         -3.4720426343       -1.5653563012        2.9677328582
 O         -3.7354901994        7.0728672437        3.4698149095
 H         -3.3747770886        7.7357004555        2.8756422954
 H         -2.9940709060        6.4632009705        3.6570436967
 O         -0.8378212940       -1.6186287679       -4.4157433987
 H         -0.3118738487       -0.8139828735       -4.5954207814
 H         -1.6985077388       -1.4389452869       -4.8296214905
 O         -6.6878325902        6.1852916133       -0.3871837392
 H         -6.4924215095        5.4346785028       -0.9799564375
 H         -5.8323897736        6.5054301923       -0.0734799196
 O         -1.6750040355       -4.1749523400       -5.6911449140
 H         -1.3208484836       -3.3188690787       -5.9791600850
 H         -2.6419398713       -4.0806038190       -5.7811808026
 O          8.1705473737        5.1052589016        3.0059884947
 H          8.2336687692        4.3510232213        3.5954876257
 H          8.6030650490        4.8465788768        2.1723014943
 O         11.1550008940        3.7043640747       -0.9590321139
 H         10.4272977921        3.8457461861       -0.3067502016
 H         11.8237116089        4.3619067543       -0.7693182291
 O          2.7151075253       -6.0571769587       -1.3471625162
 H          1.8933128024       -5.5484937825       -1.1765592782
 H          2.6850514129       -6.2800832791       -2.2960796785
 O          5.9785724356        0.6000918952        1.4359568427
 H          5.5447061999        0.5944883585        2.3068407990
 H          6.1599204475       -0.3361854531        1.2143756335
 O         -6.4098098510       -2.8341467255        2.0732650794
 H         -6.5230392782       -2.0542139106        2.6456322421
 H         -5.5202754085       -2.8026306950        1.6723011959
 O          6.8021358860       -3.9658991521       -4.5407724200
 H          6.3433943769       -4.7929239159       -4.3095961945
 H          7.7448361341       -4.1326528268       -4.6138250493
 O          5.0178972866       -5.7711865329       -3.5376925750
 H          4.4238228802       -6.4836478239       -3.7906525153
 H          4.4328668088       -4.9785250359       -3.4786129740
 O         -1.6123719131        0.5485919100       -7.6231513070
 H         -1.9085060008        1.1363236550       -6.8923421166
 H         -0.7446313847        0.8998637096       -7.8710133199
 O         -4.2400832581       -3.3967123251       -5.3805099203
 H         -3.9112158463       -2.4734577989       -5.4621323575
 H         -4.2591406857       -3.5396428694       -4.4069491771
 O          3.0770752398        3.1488664069       -6.4203136634
 H          3.9597611433        2.7259512344       -6.5636859551
 H          2.4515583159        2.7271161843       -7.0261688407
 O         -3.4176980418       -7.0054272657        0.6433309090
 H         -4.3634631694       -7.1751907848        0.5777837113
 H         -3.3118430832       -6.5143997474        1.4798962090
 O         -4.0884851261        6.4775095079        0.5187847065
 H         -3.3397562983        7.0261229470        0.8250766651
 H         -4.1764023437        5.7549618737        1.1545089634
 O          8.9434444252        1.4671594188        3.9123088869
 H          8.8083422079        1.4704521230        2.9407858173
 H          8.6585506844        0.5939157275        4.2303585142
 O         -9.5879542405       -0.4329197474        5.1883806483
 H        -10.2698740524       -0.4239770772        5.8598782217
 H         -8.8695864207        0.1426472130        5.5284372398
 O         -6.6113873472       -2.1025349743        6.0626166613
 H         -5.8199932812       -2.5819530463        5.7869187493
 H         -6.8569035350       -1.5339367477        5.3082380736
 O         -4.3118841842       -3.2651606154        4.9484301883
 H         -4.7653273892       -4.0667936410        4.6603618854
 H         -3.5102806558       -3.1922110808        4.3932319129
 O          6.4042734600       -3.5679771056        5.7007202928
 H          7.3536152715       -3.6076261745        5.5384698205
 H          6.0705148821       -4.4783668643        5.4653695704
 O         -8.9936387510        3.1888325404        2.0390668137
 H         -9.9368479640        3.0614644089        2.1457666365
 H         -8.5809185178        3.2270484554        2.9359826420
 O          1.7778877741       -3.1375700583        6.3635679158
 H          1.4972461150       -3.1121917162        5.4176905594
 H          0.9738455582       -3.3897530166        6.8384524577
 O         -9.7189119297       -4.6073511898       -2.1724165492
 H         -9.5654413142       -5.1584843550       -1.3913456716
 H         -8.9083796699       -4.7177296446       -2.6993185920
 O         -1.5761898161        4.5291699552       -2.9658629528
 H         -1.5348103364        4.8384256910       -2.0365908445
 H         -0.7211710783        4.0915676740       -3.1578672492
 O         -9.4591205471        2.7658161050       -0.9078597937
 H         -9.8568495410        2.2920569917       -0.1685643194
 H         -8.7141102689        2.2270589349       -1.2410736254
 O         -0.8702937813       -3.3672684280        6.8910393960
 H         -1.1213189384       -4.0413802022        6.2367452318
 H         -1.6962686588       -3.0572895546        7.2920979314
 O          8.3827259306        1.6845640749        1.2890728386
 H          7.4822421977        1.2843873612        1.3783808990
 H          8.8596613017        1.1389943550        0.6397196659
 O          5.5123794673        3.1738073610        2.0859649113
 H          5.9046119676        2.8974919993        2.9300189500
 H          5.4644900946        4.1504900825        2.1186593069
 O          8.9558811213       -2.2870040627        0.1493237799
 H          8.8237374089       -3.0362140237       -0.4664991493
 H          9.1916043055       -1.5157263901       -0.3859996152
 O          4.9106145941        4.7347736816        4.8095252327
 H          5.6818939637        4.1528225719        4.8713745697
 H          5.0952002006        5.3468692640        4.0889251609
 O          0.2825559556        6.3008450720       -5.1117571747
 H         -0.5830183256        6.7167112705       -4.9717117477
 H          0.0960333761        5.4624298084       -5.5684546145
 O          7.7216185432       -0.6641422769       -3.7207975593
 H          8.4239884913       -0.0002626160       -3.8003742302
 H          7.3585905461       -0.5321368456       -2.8199601743
 O         -1.1784302922       -0.1936768636        7.7480107097
 H         -1.8909145369       -0.7961165694        7.4406535787
 H         -1.2603376127       -0.1469083703        8.6998763302
 O         10.6842415624       -0.6952835494        2.9189690168
 H         10.7857449817        0.1215343490        3.4127836384
 H          9.7105095530       -0.7722784960        2.7414354981
 O          9.2947020856        3.7767903703       -3.0025537252
 H         10.0701404153        3.8870895889       -2.4302403744
 H          8.5405056227        4.1413877818       -2.4938970126
 O          6.6755355963        2.6361084163        4.5534411131
 H          7.5756644584        2.2805152899        4.3523306510
 H          6.3306944404        2.0654877291        5.2478801701
 O          9.5463204638        0.2597194389       -0.7145713769
 H         10.4349462683        0.0480810811       -0.3491363241
 H          9.6959160376        0.5844777506       -1.6305166412
 O         -4.8765698374        1.5435625671        6.5505865892
 H         -4.0721264933        1.0837468666        6.2212550300
 H         -4.6504358131        2.4849373478        6.5560356411
 O        -10.5290927969       -0.7001337478        2.5831537426
 H        -10.0713636526       -1.4965286811        2.2588515955
 H        -10.2127225922       -0.5487129387        3.4857744268
 O         -7.8571383479        5.8119340802        1.9773062431
 H         -7.5026681731        6.0191414214        1.0840691253
 H         -8.4006034137        5.0220998768        1.8686800256
 O         -1.7496896832        4.7406927198        6.5328124631
 H         -0.8415504665        4.9909358285        6.7239920198
 H         -1.7372480641        3.7553220081        6.5578268538
 O          2.7909449267        5.0604338433       -4.5059790472
 H          2.2265995888        5.7689248877       -4.8314831389
 H          2.9388688952        4.4657080307       -5.2623963445
 O         -4.8190333653        3.1808694065       -6.8722068063
 H         -5.6016295406        3.1588679507       -6.2823780077
 H         -4.5144343211        4.1005078049       -6.8276622023
 O          9.0955041757       -4.4420997609       -1.4320654437
 H          9.1529566408       -3.9417268773       -2.2817622666
 H          8.2236937410       -4.8771440569       -1.4464204165
 O          3.5684865077       -1.3009017192        1.4263411479
 H          3.5306214617       -0.3374522298        1.5509956976
 H          3.4723899820       -1.6796708910        2.3237251708
 O         -6.8121598283        3.3094773814       -5.1012080558
 H         -7.7673216872        3.2085656048       -5.1862069800
 H         -6.6576826630        4.1808807665       -4.6873801009
 O          1.4628463818       -0.4621477441        6.7770385861
 H          1.6205193167       -1.4255113710        6.7532279965
 H          0.5334139346       -0.3418021535        7.0341525563
 O          5.9189559796       -2.1139062811        3.4978905381
 H          5.4279614858       -2.7539170486        2.9499063198
 H          6.1095518566       -2.5841924215        4.3337012513
 O         10.6119963658       -3.3048962037        2.0251665085
 H         10.9589185792       -2.5335395414        2.4894341969
 H          9.9257099405       -2.9392808651        1.4187678653
 O          4.0682581292        0.4818170467       -0.6908898928
 H          4.3367508297       -0.2906569764       -1.2367003182
 H          4.7178978254        0.5705598333        0.0217337524
 O         -1.3005887266       -5.0518565915        4.7894126295
 H         -0.7432428720       -5.8364976034        4.7245435661
 H         -2.0150532240       -5.1291162275        4.1280557986
 O         -0.4564910633       -5.5573995493        1.8903865255
 H         -1.3773686265       -5.6028920614        2.1807246345
 H         -0.3408528062       -4.6404368536        1.5823853809
 O          0.6087889689       -3.2760832465        3.9402968017
 H          1.0208208476       -3.5100163287        3.0989179851
 H         -0.1012797559       -3.9138596737        4.1277841241
 O          7.1816346703        4.6815073854       -1.5691120142
 H          6.5451435271        4.8647431427       -2.2875728314
 H          6.7972197792        3.8674675215       -1.1529204029
 O         11.7869543742       -0.5617940755        0.4334672570
 H         11.8596315457       -1.4780930473        0.1201980005
 H         11.4922785267       -0.6004118104        1.3649686840
 O         -0.0634483368       -6.8134891129       -2.5727214958
 H         -0.8491004883       -6.3280074503       -2.8687459798
 H         -0.2785730298       -7.1619857953       -1.6944460490
 O         12.1737523851        1.1822844069       -1.7476228007
 H         12.4155384562        0.7701063681       -0.9095996658
 H         11.8464310492        2.0664734461       -1.5222664552
 O          9.2993698491       -2.9030810191       -3.5976400443
 H          8.6398367826       -2.1837986660       -3.6679842136
 H         10.1365240892       -2.4392333585       -3.4491636881
 O         -5.6894143232       -5.1119286161        3.3400476808
 H         -5.9528459830       -5.7608192583        2.6570358798
 H         -6.0374924636       -4.2711981778        2.9699246824
 O          0.8582778410        4.1843266173       -0.8893766932
 H          0.8639581974        4.9429341591       -1.4970375502
 H          1.7634594111        3.8573480016       -0.8547741980
 O         -2.0275738928       -4.9240854843       -0.5716452031
 H         -2.1645559133       -4.8089612825       -1.5307436396
 H         -2.5757830913       -5.6742336297       -0.2946390608
 O         -3.1466608217       -1.9727460658        7.2008903894
 H         -3.5229183974       -2.3725613256        6.4035804534
 H         -3.9177873978       -1.5603818358        7.6609127129
 O          4.3521729598       -1.9121950794        6.2988186537
 H          5.0901193061       -2.5449784743        6.2387167326
 H          3.6070255856       -2.3861176831        6.6843703442
 O          2.7309239297       -6.0493586340        1.8747966935
 H          2.2469988342       -5.2480221477        1.6119163666
 H          2.3292008422       -6.8065032290        1.3954352499
 O          3.3543762071        1.5113604828        1.8030814395
 H          3.0041218590        1.7517971275        2.6715931560
 H          4.1617418263        2.0480670806        1.7367915880
 O          2.3273085907        7.7776951999        0.3366503494
 H          2.1350701406        8.5872983015       -0.1344351455
 H          2.7773496083        7.1715933596       -0.3088829014
 O          8.1197254514       -0.9480938999        2.3396097827
 H          7.3833977203       -1.3614349898        2.8228595134
 H          8.2372918760       -1.4841478738        1.5389550906
 O          0.8581485622       -6.6299173683        3.9490140945
 H          1.2306251844       -7.4858867133        3.7370763460
 H          0.5126058867       -6.2626069437        3.1055312165
 O          1.9852416093       -8.0380147598        0.2998690162
 H          1.0352137089       -8.1572838782        0.1738345243
 H          2.2755229535       -7.4699430226       -0.4451510464
 O          6.7144361717       -2.8743703891       -2.0232606560
 H          6.8017614762       -3.1725429828       -2.9457779901
 H          6.4177336388       -3.6487381074       -1.5169273240
 O          7.3610460993       -3.8128816893        1.8171416641
 H          7.9757402941       -4.4903905166        1.4826356649
 H          6.5362291300       -4.2828809972        2.0332820003
 O          3.4895850927       -3.6075955097       -3.5579230541
 H          3.8254077784       -2.8324814520       -3.0637673185
 H          2.5227427013       -3.6249714159       -3.4344406590
 O         -6.9494052646       -0.4354723429       -6.8500999111
 H         -7.4361210034       -0.1236527323       -7.6125910385
 H         -6.0244007913       -0.1463100427       -6.9705175448
 O          8.2204935890       -0.8471024992        5.3045034042
 H          8.3272864823       -1.6843182206        4.7959871503
 H          8.8428994445       -0.8926309108        6.0297302730
 O          6.7829622333       -6.4525134481        2.5316755336
 H          7.6749462891       -6.5542391381        2.1888614271
 H          6.1727206528       -6.6980372905        1.8143046074
 O          8.6363477895       -3.2373788279        4.1062538939
 H          9.5326619902       -3.4090653171        3.8018041772
 H          8.0782529987       -3.4108558313        3.3083068000
 O          2.6770138161        4.4025401313        1.8760142180
 H          2.8512648168        3.8609934985        2.6609789403
 H          2.8271310887        5.3270475382        2.1512788937
 O          2.9825370247       -5.0109094213        4.5300903540
 H          2.7265870890       -4.7322901074        5.4161499294
 H          2.2821635782       -5.6183211583        4.2208515181
 O         11.4251168569       -1.3964284928       -2.6728122178
 H         11.7748760303       -0.5162697551       -2.4803856715
 H         11.8532180363       -2.0002481832       -2.0576346748
 O          5.5457885677       -5.8838504917        4.9069621389
 H          6.0134430188       -6.1473056090        4.0965885754
 H          4.6213397406       -5.7127778213        4.6601040069
 O          9.2551144875       -5.6248414764        1.1251887015
 H          9.9601244372       -5.1402005375        1.5694692844
 H          9.3536770932       -5.4547676945        0.1786469194
 O          6.5651697720       -5.5131197707       -1.3025005268
 H          6.0579126748       -5.8917469204       -0.5687881218
 H          6.0402550838       -5.7097061639       -2.0990846089
 O          3.1680066025       -2.3579345531        3.8316744254
 H          3.1581846092       -3.3259390250        3.8631253828
 H          3.5987810961       -2.0669662264        4.6490313101
 O          6.0325686884       -1.8337384384        0.4438933759
 H          6.5277977560       -2.5971737854        0.7819264653
 H          5.1029266516       -1.9243724808        0.7144547799
 O          6.9056935578        0.0693718775       -1.2520341440
 H          6.5885855265       -0.7327207053       -0.7915472875
 H          7.8344223704        0.1572908644       -0.9978559723
 O         -7.8414130812        1.3293831236        6.2089984218
 H         -7.9018564578        2.1265424928        5.6596840637
 H         -6.9499574160        1.3068445222        6.5701518880
 O         11.7069754825       -3.2477573328       -0.4877366036
 H         11.5912588822       -3.4988477641        0.4431830339
 H         10.9988825054       -3.7008204258       -0.9622639267
 O          3.0734298033        2.9296140021        4.1228508597
 H          3.7259833713        3.6078683697        4.3981805289
 H          2.9412639686        2.3960490119        4.9211265677
 O          5.7041058464        5.8444870843        2.2971169889
 H          6.6320423078        5.7622891162        2.5996192182
 H          5.7598993142        6.2011397426        1.3767616791
 O        -11.0065934105        1.2905724865        0.9841900086
 H        -11.9260126240        1.4955076886        1.1511068829
 H        -10.7697954768        0.5477401426        1.6038927444
 O         -6.1927876622       -6.3201814730        0.9964458286
 H         -5.7938258146       -5.6542244462        0.4097513887
 H         -7.1471749621       -6.2263105422        0.8284895164
 O         -5.9759808944       -1.0230469719       -3.0615139705
 H         -5.6711569718       -0.2106586500       -3.5176752218
 H         -6.4727278043       -1.5370966120       -3.7227773236
 O         -6.7792860483       -2.5959459696       -5.1238984367
 H         -5.9005306070       -2.9685696252       -5.3568310967
 H         -7.0183338281       -2.0091374111       -5.8509916434
 O         -7.4293338909       -3.1798636581       -0.8221979094
 H         -6.5589750121       -2.8893065134       -0.5031708954
 H         -7.9545354106       -2.3553653929       -0.8354231232
