  105
       -178.17678497
 O         -1.5436248727       -0.7271678311        0.2206593428
 H         -1.2684684930        0.2093999508        0.1222974719
 H         -2.2891298974       -0.7049065424        0.8555235678
 O          1.0730537116       -1.1826198736        0.5438067295
 H          1.1293979731       -0.3107357440        0.9940369451
 H          0.1259462271       -1.2840279936        0.3451549741
 O         -3.2242061885        2.2793287807        2.6469255228
 H         -3.6140037626        2.5116319075        3.4892055193
 H         -2.2743233942        2.5022936920        2.7145979794
 O          0.4114204544        3.6943820234       -1.1985466801
 H         -0.0187565093        3.8008511252       -2.0786690788
 H          0.0488975288        2.8622283013       -0.8300803824
 O          2.5560880018       -0.2089254368        4.0256655638
 H          3.4913354586       -0.0656554820        4.1712354923
 H          2.4873857194       -1.0802458384        3.5404619388
 O          3.4363867032        2.2556227893       -3.9897694419
 H          3.3290465443        2.7718634957       -3.1677017823
 H          3.7399092083        1.3725528607       -3.7123821184
 O          1.8550988382       -3.7199958078       -1.0580558415
 H          2.1319949229       -4.5087774772       -1.5235208462
 H          2.6517222913       -3.4081902920       -0.5396050365
 O         -2.7049308499       -4.2731025656       -0.1033615173
 H         -3.0771572117       -3.7980366184        0.6958109421
 H         -3.1612042241       -5.1128333070       -0.1431062254
 O          0.4507217356        1.3318115129        4.9724382071
 H          0.5704833062        1.5406836542        5.8987932150
 H          1.1927885763        0.7560031350        4.7153086197
 O          1.3266085985        1.0623778427        1.9325612597
 H          1.9802715048        1.5362767445        1.3764692029
 H          1.8268650753        0.7165706384        2.6909229007
 O         -5.1584463764        0.4445994940       -0.5664847009
 H         -6.0982300887        0.4486961811       -0.7438859945
 H         -4.7222022174        0.0593082493       -1.3881173255
 O         -0.5902248637        3.0105786176        2.8259493132
 H         -0.1397567648        2.5224670071        3.5282612794
 H          0.0939393604        3.5687383265        2.3981738828
 O          1.0448221139        1.7044169921       -4.8028808714
 H          1.9770425370        1.9669221662       -4.5290999610
 H          0.9771118689        1.9065151395       -5.7365355606
 O         -0.1212364756       -3.9765348333        0.8327755283
 H         -0.9677573767       -4.1584384934        0.3931010764
 H          0.5451283193       -3.8331439241        0.1393788134
 O          2.9488759440        3.6541296171       -1.7124415031
 H          1.9576444014        3.6386924155       -1.5628671098
 H          3.2023214884        4.5769319736       -1.7332677880
 O          3.9329498538       -2.8881020253        0.3015318254
 H          3.9753063048       -1.9637346022       -0.0103753758
 H          3.5908281611       -2.8270508902        1.2111882302
 O         -1.0994995373       -2.5717324210        2.9937425790
 H         -1.1249714092       -1.5934055778        2.9724295406
 H         -0.7187085583       -2.8582199226        2.1448966388
 O          1.6903273622       -1.0126698560       -4.6447680976
 H          1.1555556610       -1.4153124776       -3.9307346783
 H          1.3103467683       -0.1315246222       -4.7963909285
 O         -2.1520580103       -2.2361411509       -1.8331982869
 H         -2.4219268933       -3.0618673532       -1.4009925677
 H         -1.9608003088       -1.6253448545       -1.0786552258
 O          0.2616545285        0.8540524031       -2.0821377125
 H          0.5940819127        1.1472866397       -2.9360512715
 H          0.3455601306       -0.1177766903       -2.0786411416
 O         -2.2583482263        1.6934389479       -2.5247580834
 H         -2.6578719093        2.1439478048       -1.7712651657
 H         -1.3935135407        1.3317269860       -2.2193569466
 O         -0.6682305082        3.6098618371       -3.6356063014
 H         -1.4273496731        3.0420283289       -3.4079887307
 H         -0.0546998260        3.0241227719       -4.1061551688
 O         -3.7748111928       -0.3333263186        1.6602922920
 H         -3.5139160140        0.4790084661        2.1227969185
 H         -4.3515866085       -0.0708970514        0.9222720981
 O          3.3983263685       -0.3886241844       -0.6309661912
 H          2.4784151635       -0.6667692790       -0.4589754371
 H          3.5134034464       -0.3586437373       -1.5969748448
 O         -3.5629907683        2.5912797508       -0.0802160409
 H         -4.1965770297        1.8795413290       -0.2946194947
 H         -3.6408474093        2.7178248446        0.8770848176
 O          3.8445925468       -0.3725721557       -3.3236731987
 H          3.0483829317       -0.6736646277       -3.8497788762
 H          4.5850283381       -0.8991705088       -3.6231223939
 O          0.4337599907       -1.8308184401       -2.4274997295
 H         -0.5069327686       -2.0884125528       -2.3408509390
 H          0.9512232598       -2.4619577441       -1.8963406479
 O         -1.0928152706        0.1201058375        2.9754151738
 H         -0.8885802633        0.4159382414        3.8679275613
 H         -0.3678692563        0.4568311951        2.4285775317
 O         -0.9731981045        1.8856200970        0.2822282339
 H         -0.7108443229        2.1629952486        1.1756802333
 H         -1.8793575066        2.2238694537        0.1513705796
 O          1.3337930350        4.2296375299        1.3766872479
 H          2.1010457196        3.6510189293        1.3043663466
 H          0.9350015325        4.2494649079        0.4924368979
 O          0.9333272766       -4.4117515566        3.3662828016
 H          0.1924250636       -3.8983869584        3.7199402482
 H          0.6496343187       -4.6364498195        2.4667820543
 O          2.4206250267       -2.3567274742        2.5428118457
 H          1.8401365419       -2.0378513521        1.8145179990
 H          1.9664915698       -3.1433745518        2.9240687972
 O         -3.9700345006       -0.4119625319       -2.6992227263
 H         -3.3678981132        0.3455608187       -2.8376196989
 H         -3.3851397312       -1.1696028900       -2.5046798098
 O         -3.5612654580       -3.0765716559        2.0580061550
 H         -2.7197715218       -3.0053265762        2.5607153457
 H         -3.8363020314       -2.1563401080        1.9340330923
 O          3.3105068933        2.0866036604        0.4902742140
 H          3.5010309306        1.1960735780        0.1318132423
 H          3.2746445229        2.6574224317       -0.2973668470
