  462
       -779.01419988
 H         -1.8853556140        0.3390883021        0.1563963147
 C         -1.2038933263        1.1915182047        0.1981534202
 H         -1.7436813164        2.0926444820       -0.0822812873
 C         -0.0470439834        0.9505350245       -0.7537102574
 H          0.6419613025        1.7904708395       -0.7225699332
 H         -0.4407986801        0.8405003289       -1.7588119197
 O         -0.7712491528        1.3993037921        1.5297770443
 H         -0.2439314734        0.6228846872        1.8469389498
 N          0.6703853302       -0.2741982877       -0.3633439576
 H          1.1432393403       -0.7139217278       -1.1914969871
 H         -0.0119507799       -0.9988754457       -0.0077060062
 H          1.3663134034       -0.0659578566        0.3600275210
 O         -1.2382343550       -2.2216430479       -3.1482081878
 H         -1.9755173368       -2.1261913300       -2.5345451178
 H         -0.6122682221       -2.8520329870       -2.7382402176
 O          4.0220100851       -1.2195717290        5.0332190416
 H          4.3491218581       -1.5742213883        4.1741632981
 H          4.5725269973       -0.4593294581        5.2505608999
 O          0.1974110683        2.2468806331        3.9509676443
 H         -0.3332741559        1.4986693822        4.2580755695
 H         -0.0941224424        2.4416925665        3.0553984221
 O         -0.0066479585        4.0948153925        5.8579093790
 H         -0.0227653036        3.4543879540        5.1114385745
 H         -0.6922655843        4.7526973937        5.6816975398
 O          3.3721898624       -6.4463879706       -1.4867106177
 H          3.8151933761       -7.2172474752       -1.8407196742
 H          3.0720644816       -5.9330548970       -2.2558881510
 O         -3.8230324285       -3.7430056476       -3.2186128540
 H         -4.5928372067       -4.3021423874       -3.0184694047
 H         -4.0692915899       -3.2016556115       -4.0008370961
 O          4.4642615965       -2.4967913549       -5.9093784634
 H          4.4296062747       -3.4546465973       -5.9442113094
 H          5.3863860099       -2.2727407244       -5.6675626140
 O         -3.3112909254       -1.5727114737       -1.2521842217
 H         -4.0421746730       -1.9567519886       -1.7764349695
 H         -3.7738138994       -1.0541017802       -0.5492535701
 O          8.0662885427        2.2183171803        2.2943933426
 H          7.7538722784        3.1326551370        2.4123947221
 H          7.7043704912        1.6844324790        3.0249405044
 O          2.8203836022        6.2136855304       -1.0223921520
 H          3.5835590616        6.5620858709       -1.4840656419
 H          3.0845424778        5.3428630433       -0.6604760447
 O          1.1554883444        3.7414255678        0.7765015024
 H          0.2667202599        3.9718086535        1.1176791354
 H          1.1672397864        3.9203462581       -0.1725245522
 O          1.8063022369       -3.4285195835        0.0445917062
 H          2.5791881112       -4.0151361157        0.1043364044
 H          1.5747214894       -3.2744847246        0.9774802402
 O          2.8484547625       -1.2383855927        1.3463268691
 H          3.0696683922       -1.6277507983        0.4834168412
 H          3.2802239474       -1.8453646144        1.9698509128
 O         -1.5779637387        7.2577999124       -2.3922271544
 H         -1.8817429970        8.1606210325       -2.4740668932
 H         -0.8903144570        7.2597893339       -1.6884690241
 O         -0.4999908777        0.2242696340       -3.8549044991
 H         -0.6344893353        0.2346396611       -4.8330690427
 H         -0.5697529286       -0.7183315065       -3.5963840927
 O         -7.0210880824       -5.3325681332        2.3582133886
 H         -7.8328468095       -4.8197531781        2.4740699438
 H         -6.3645483407       -4.8730230959        2.9074299933
 O         -2.0993114596        2.1845858656        6.6473481018
 H         -1.8008990863        1.4856920380        6.0348112277
 H         -1.4428922700        2.8903315671        6.5674067645
 O         -0.7203030523        4.5735081825       -1.0741364775
 H         -0.5418183271        4.9229422094       -1.9698135668
 H         -1.6398633816        4.7790097172       -0.8402071721
 O         -0.8159258115        3.1747646670       -5.1292670319
 H         -1.5012388440        2.8712986742       -5.7514784416
 H         -1.0445860456        2.7334391243       -4.2868649182
 O         -6.0519994387       -2.7124900913        0.0657359939
 H         -5.9546491129       -2.3346916934       -0.8341969051
 H         -5.1911779881       -3.0948595551        0.3391213492
 O         -3.1015191775        0.9963195493        2.6499343825
 H         -3.3378132478        0.0819365462        2.3988984504
 H         -2.2416274682        1.1884110022        2.2171367569
 O         -4.6782534160       -0.0148362968        0.4131870421
 H         -4.4367050141        0.8237384490       -0.0112131821
 H         -5.6185877313       -0.1865537235        0.1841499085
 O         -3.8671810869       -3.7413556453        1.1313833448
 H         -4.1223216794       -4.6195360230        1.4743086968
 H         -3.2435920902       -3.9202157370        0.3960544147
 O          4.4447233296        3.9897506411       -2.8643482874
 H          4.3731985348        3.9143410331       -3.8491076317
 H          3.5256539127        3.9710877207       -2.5288019559
 O          7.4589241818       -3.9643996949        0.6292925104
 H          8.4220481290       -3.8770523307        0.6015354873
 H          7.1435997733       -3.0404478493        0.7981909250
 O         -1.3218987014       -7.6680861046       -0.2643525773
 H         -1.4364080268       -7.4869685371        0.6819044838
 H         -2.2153560448       -7.5795699848       -0.6271614593
 O         -2.6703955715       -4.2390051609        4.6063977688
 H         -2.1450721452       -5.0410710198        4.7480818258
 H         -2.1111356316       -3.6842647344        4.0319849486
 O          1.8045673218        3.6665072734       -2.1953895983
 H          1.3345165824        4.3261694792       -2.7201961097
 H          1.7296684426        2.8225539653       -2.6647682056
 O          6.8831188404        0.4853813954        4.0400463701
 H          6.4356688923        0.8860213924        4.7957405319
 H          6.1705584603        0.3263423602        3.3823245063
 O         -2.5647415817       -1.9258540850        6.1394725905
 H         -1.7349183029       -1.8634327869        6.6368287582
 H         -2.6009057902       -2.8145341047        5.7485950154
 O         -1.1162868739        4.4510450127        1.9288758439
 H         -1.1341015420        5.3342523129        2.3540642723
 H         -1.7956558067        4.5028677668        1.2219916970
 O         -7.4351095543       -4.8895438578       -0.4052839604
 H         -7.0231148990       -4.0116144685       -0.2232744915
 H         -7.3794315053       -5.3542920306        0.4390531602
 O          1.7091605595       -3.4690221666        2.7313917966
 H          1.4949835491       -4.4184127677        2.7720835792
 H          2.4220412868       -3.3618128830        3.3739584839
 O         -6.0039032321        0.9171431801       -2.2063030486
 H         -6.2073653450        1.3474640178       -3.0561389908
 H         -5.1203783696        1.2496423387       -1.9464546670
 O         -1.1943697622       -2.0018484737        0.4213094290
 H         -0.9798717291       -2.9286870626        0.6118605901
 H         -1.9488236513       -2.0093183950       -0.1847279265
 O          6.7225268009       -3.7683935530       -1.9595123522
 H          6.6322977437       -2.7936754573       -2.0146958978
 H          6.9344630157       -3.9758897069       -1.0316793985
 O          0.5249435204       -0.6820563114        2.6095682702
 H          0.7891368615       -0.4326914359        3.5216063546
 H          1.3497652773       -0.9731891579        2.1774925123
 O         -5.3850089490        4.4692544874       -1.5648375100
 H         -5.6395017145        5.0419777394       -0.8216254946
 H         -6.2190545121        4.1925640907       -1.9853140017
 O          5.2611884263        4.1338570472        4.7539798740
 H          4.3649760784        4.4370736212        4.9742038248
 H          5.3775037506        3.2907277297        5.2151477671
 O         -3.0901912478        4.8106664192        0.1889348995
 H         -3.4687082035        5.5292020403        0.7262443435
 H         -3.6102999094        4.0203884261        0.4582320872
 O          2.0750808715       -1.5264499902       -4.9909977304
 H          2.9645644750       -1.8599166169       -5.2065232148
 H          1.8720497777       -0.8595109152       -5.6897896480
 O         -7.1117955477       -2.5231125973       -4.5034646561
 H         -7.8401484929       -2.8468800944       -3.9438598595
 H         -7.4091377303       -1.6415475722       -4.8105703194
 O         -5.6854425130       -1.7309529405       -2.3737691420
 H         -5.8668786067       -0.7688937300       -2.3415791794
 H         -6.1703067535       -2.0815923426       -3.1481768312
 O         10.7474722513        1.0066323469       -1.0465980743
 H         11.5362165247        1.2777384857       -1.5153411432
 H         10.0163289041        1.5882602022       -1.3524643327
 O          5.2156671410       -0.0500132456       -0.2879628670
 H          5.3298504014        0.1245396917        0.6624919292
 H          4.9259002251       -0.9812531286       -0.3622603973
 O          8.8498958854       -3.2310992034       -3.5966344947
 H          9.2866460611       -2.5345955236       -3.0884141892
 H          8.1887165213       -3.6060342600       -2.9868991558
 O          4.9193109267        6.0541074588        1.3874306551
 H          4.9586220103        6.9961680207        1.5494768875
 H          4.0291740695        5.7591243619        1.7096290048
 O          2.1772696449        1.4584728588        1.7300628778
 H          2.7126036379        1.3443042373        0.9315537726
 H          1.6777470212        2.2737349335        1.5528642916
 O          3.8420578742       -3.2422403495       -3.1176618082
 H          3.1288318433       -3.8836986815       -3.2458698067
 H          4.5999225550       -3.6370037327       -3.5963947497
 O         -6.7588721373        2.3825217234        0.0774014119
 H         -5.8929535566        2.5371019265        0.4962682104
 H         -6.6219301327        1.8761445682       -0.7371456471
 O         -0.0075105071       -4.0952493958       -1.7070577456
 H          0.6812350766       -3.8409397556       -1.0542211435
 H          0.1730898107       -5.0047827037       -2.0028592356
 O          2.8743712350        1.8678106373        4.3034459201
 H          2.6445310802        2.8011487538        4.5084881759
 H          2.6770609201        1.7389692951        3.3506220146
 O          1.1413214100       -6.3273294916        0.1699185660
 H          0.4332477915       -6.9207333381       -0.1152787442
 H          1.8871364339       -6.4366623143       -0.4412429890
 O         -3.2755823121       -1.6454279834        2.6577655150
 H         -2.3670141645       -1.9224519515        2.8756097871
 H         -3.6064692868       -2.3444792077        2.0648314063
 O         -5.9313048779        0.9493497492        2.8139863777
 H         -5.6045666071        0.5312776460        2.0052524510
 H         -5.6221693266        0.4036549306        3.5430432022
 O         -6.4503935712        6.0872696598        0.4168341779
 H         -6.9191627630        6.8625613636        0.1102136784
 H         -7.1476387533        5.4345183581        0.7032712438
 O         -4.4975709207        2.9805577029        1.4607722533
 H         -4.0837167364        2.1690275407        1.8114064363
 H         -4.7662611686        3.4851824812        2.2539803633
 O         -7.1780284306        1.6586050744        5.7904071597
 H         -7.3850652794        1.5907540656        6.7214705733
 H         -6.2142504625        1.8327827663        5.7259168250
 O         -0.0675075549       -6.6680760133       -2.5676555053
 H         -0.5336217671       -7.1947004232       -1.9058448246
 H         -0.7522362190       -6.3265455117       -3.1850392334
 O         -4.5723076044       -0.5962866726        4.7742133849
 H         -4.1903118553       -1.0414811674        3.9893618964
 H         -4.1038611735       -0.9870313016        5.5215888731
 O         -0.6620158059       -4.5309182691        1.2614657092
 H          0.0893439633       -4.9466858533        0.8138682531
 H         -1.2115836256       -5.2736219511        1.5789640633
 O          4.3340487283       -2.4878648100       -0.6130985039
 H          4.2528554457       -2.8025872954       -1.5348989484
 H          4.5294722419       -3.2700521800       -0.0763027449
 O          1.7725677188        2.5853227819       -5.6603964586
 H          1.9128292512        2.1083422686       -4.8171218940
 H          0.8450163659        2.8808614260       -5.6290461300
 O         -3.1814826792        5.0085598145       -3.0472451092
 H         -3.9687911215        4.9381504517       -2.4734699159
 H         -2.7269229926        5.8314999086       -2.8155346207
 O         -3.1118590042        0.4394818673       -3.0535562628
 H         -2.1893069847        0.5264998921       -3.3490065463
 H         -3.1430349794       -0.2972969868       -2.4186456811
 O         -8.2210489224        4.2630506355        1.0545676775
 H         -8.1565941152        4.0487487739        1.9941813830
 H         -7.7058103192        3.5397329742        0.6085878641
 O         -1.6741942633       -5.2584742689       -4.1202083240
 H         -2.4322633299       -4.7110443929       -3.8531366078
 H         -1.0112365320       -4.6647777092       -4.4949763699
 O         -4.5403515953       -2.3961793559       -5.4045121522
 H         -5.4741265798       -2.6443191118       -5.3812357851
 H         -4.5403795212       -1.4147557197       -5.4005043958
 O          7.0245681848        4.7590074303        2.5744719080
 H          6.7129388781        4.7125207118        3.4857825922
 H          6.2853178000        5.1724058415        2.0867185670
 O         -0.0193089301        5.2490669740       -3.5959707568
 H         -0.3403910737        4.6416172719       -4.2903373109
 H         -0.4670508613        6.0923668406       -3.7079162306
 O          5.0418037672        0.8669864393       -5.5922433615
 H          4.5319099365        0.3889839487       -4.9101846780
 H          5.9702411124        0.7516608397       -5.3002670742
 O          3.0396940435        1.3039657829       -0.8058619941
 H          2.7445410987        1.2260464902       -1.7214415462
 H          3.9097001227        0.8453773731       -0.7428400496
 O          4.0584223161       -4.8177979924        0.6859851250
 H          4.0854271837       -5.5736325583        0.0903916425
 H          4.0949819400       -5.1372782575        1.6077111246
 O         -1.5598101823        0.2653696808        4.7629174198
 H         -1.8543565355       -0.5533680729        5.1922359632
 H         -2.2268996332        0.4713288639        4.0825955995
 O         -2.4921969198       -4.3820313746       -1.0023869498
 H         -2.9443063004       -4.0450238422       -1.7941381961
 H         -1.5247330270       -4.3158159311       -1.1859723653
 O          5.5949727986        1.5927590960       -2.3658854480
 H          5.0863420101        2.3966807881       -2.5683741694
 H          5.8922213676        1.7120698643       -1.4535125504
 O          6.8765243483       -1.5302475714        1.3719113504
 H          7.2867441933       -0.8114491152        0.8480102867
 H          7.3992949268       -1.6170958449        2.1942822776
 O          3.1159173214       -3.8497484908        5.0817605586
 H          2.1792098869       -3.8474165140        5.3615253662
 H          3.5029764264       -3.0163930028        5.3735035250
 O          1.4962287216       -6.1895456265        2.8342497302
 H          2.4261419715       -6.3230950018        3.0521548086
 H          1.3961713514       -6.3718366677        1.8803717223
 O         -5.2517166947       -3.9007261992        3.9919244603
 H         -5.6282946142       -3.8402215952        4.8700634375
 H         -4.2952338796       -4.0726157022        4.1164010611
 O         -4.5455148793        0.2770087501       -5.2173870663
 H         -5.3628621987        0.7699831219       -5.0992365741
 H         -4.0436062881        0.3464648211       -4.3647857023
 O         -0.8787352655       -2.7658400411        3.2761390165
 H         -0.3452348914       -1.9735379499        3.0120884725
 H         -0.6741452506       -3.4288592963        2.5858932961
 O          9.5171145187       -1.4164213923       -1.5566403797
 H          9.6412970202       -1.9726386736       -0.7705683529
 H          9.9572245492       -0.5720663962       -1.3639534996
 O         -6.3924405967       -1.8595577826        2.5861311205
 H         -5.8261579215       -2.5113141406        3.0299535185
 H         -6.2635916114       -1.9810757282        1.6247800986
 O         -3.8438762590       -6.6667668467       -0.9372528968
 H         -3.2803473074       -5.8592378211       -0.9607860687
 H         -4.5687253597       -6.4700527156       -1.5507206143
 O          2.5350500632        4.4316857902        4.8864456913
 H          2.4379927502        4.8341328521        3.9979925720
 H          1.6681956153        4.4764225828        5.3322411234
 O          4.9813708276        1.4710953306        5.7319133608
 H          4.6570741485        1.5347782093        6.6297011989
 H          4.1884251037        1.5934179262        5.1323670423
 O          4.6821145313        3.0083272172        2.3524066917
 H          4.8320393527        3.5365100998        3.1547598487
 H          4.1051038239        3.5004712160        1.7465677442
 O         10.0549855988       -3.0002650768        0.6524401372
 H         10.8756704049       -3.4729275419        0.5149271596
 H         10.2028009955       -2.3710821490        1.3919296931
 O          4.3599218948        3.4643553096       -5.4236826008
 H          4.6870997103        2.5442078283       -5.5283389518
 H          3.4319685991        3.4093390692       -5.6971001595
 O          3.7448711576        3.8337190922       -0.0656936033
 H          4.6823466436        3.5874947120       -0.1898033206
 H          3.2583451428        3.0621755789       -0.4026633129
 O          1.9145052559        1.1739670910       -3.3709683915
 H          1.0416633710        0.7463827196       -3.5331040517
 H          2.6027531867        0.4924040168       -3.5144994883
 O          7.2360226301        3.3501205278       -3.9678362888
 H          6.4104386421        3.5930137214       -3.5306330884
 H          7.1532348673        3.6451892235       -4.8759018219
 O          8.0329466861        0.5225504653        0.1477830600
 H          8.0395873262        1.0631649028       -0.6527071810
 H          7.9722978823        1.1581266479        0.8791684567
 O         -0.5636272355       -6.0227402173        4.6527118934
 H          0.1517780031       -6.2321947298        4.0281026221
 H         -0.1789702074       -5.3245602391        5.2058287119
 O          0.8676548152        7.3803942639        2.1751888032
 H          0.0177951163        7.3343469230        2.6315315340
 H          0.6553513705        7.3917926672        1.2228026925
 O         10.5529348208        1.1387188370        1.7339747510
 H          9.7331765267        1.6158591052        1.9508359185
 H         10.5937012323        1.0887272026        0.7631778756
 O         -5.1789052091        4.2105259534        3.7657014279
 H         -6.1222223897        3.9730622134        3.6968683199
 H         -4.7974114698        3.5571080092        4.3814611189
 O          4.8456973874        0.4012873085        2.3456258477
 H          3.9798529747       -0.0028582316        2.1798899981
 H          4.6951289409        1.3686338399        2.3875819189
 O         -8.2081274615       -0.4234219527        4.0967414710
 H         -7.4365675228       -0.8127480844        3.6519194536
 H         -7.8578981174        0.2352038163        4.7130864874
 O          4.7542128920       -2.4409720431        2.7878710668
 H          5.3767066076       -1.9470562179        2.2236499258
 H          5.2412354465       -3.2541813509        3.0196335023
 O         -5.8386174324       -5.4667414831       -2.4311641803
 H         -6.3876779713       -5.7362965470       -3.1667019545
 H         -6.4628338061       -5.2594581185       -1.6882792959
 O          8.1076556117       -1.9110521870        3.7252135530
 H          7.7466526549       -1.0735810374        4.0674421687
 H          9.0276747061       -1.7241536785        3.4721950427
 O         -9.1778575387       -2.2815997113        0.1228198395
 H         -9.0085070715       -2.9148413411       -0.5866424553
 H         -9.0991686498       -2.7521910665        0.9721129314
 O          4.0906044937       -0.4511949717       -7.7703238930
 H          4.5503978655        0.1492290091       -7.1547866734
 H          4.2128098295       -1.3284336466       -7.3797020563
 O         -2.3887209046        5.5269431797        5.3877921832
 H         -2.5709110322        4.6807075881        4.9162053777
 H         -3.0701259685        5.6279753013        6.0504437822
 O        -10.4258770622        0.2112522789       -0.1727595120
 H        -10.0038999069        0.5564892721        0.6356340313
 H        -10.3066598151       -0.7473877079       -0.0922288694
 O         -7.3152541898       -0.2963716387        0.0872151146
 H         -7.7309780672        0.3273908461        0.7077126284
 H         -7.8599228040       -1.1045829767        0.1276481283
 O         -8.7269595050       -3.1406532562        2.6642918386
 H         -7.8771753192       -2.6338496627        2.6640692434
 H         -9.2991289982       -2.6736086862        3.2746841899
 O          1.5055557158       -0.2557168087        5.0447550385
 H          1.7578339339        0.6803673389        4.8971946106
 H          2.3624904852       -0.7281296703        5.0632064546
 O         -4.5211813465        2.0842564003        5.4421851311
 H         -4.4419421003        1.1684682285        5.1157103325
 H         -3.7151354841        2.2324459041        5.9812161675
 O         -1.7910911822        2.7408179864       -2.6860038207
 H         -1.1667900032        3.1044971543       -2.0395738579
 H         -2.3433618750        3.5064686182       -2.9440962558
 O         -8.9286510820        0.9832310298        1.9336023304
 H         -8.7856803703        0.4000612681        2.7116481650
 H         -8.6657296440        1.8631558362        2.2250181410
 O          6.9189379494       -1.0624979284       -2.1602840843
 H          7.8608788074       -1.1170334446       -1.9022491958
 H          6.4692349480       -0.5442795986       -1.4707609293
 O         -2.7979225569        1.9264160759       -6.4979858467
 H         -3.4872020305        1.3493289582       -6.1123615962
 H         -2.1141669027        1.2922844577       -6.7694162774
 O          2.0489910936       -5.3069700199       -3.6149486013
 H          1.3904944119       -5.9666193098       -3.3499856351
 H          1.5989721363       -4.8032834320       -4.3148148221
 O         -9.6945143133        2.9328520179       -1.0418466076
 H         -9.5005770852        3.3844819813       -0.2107137463
 H        -10.0374679055        2.0595658821       -0.8190494382
 O          7.0801143046       -2.1219891628       -5.3035016505
 H          7.7855665569       -2.5281066456       -4.7539528006
 H          7.2572092612       -1.1762495508       -5.2497636957
 O         -8.7106406831       -0.0961733353       -2.2407222066
 H         -9.4646856435        0.1354881948       -1.6691236797
 H         -7.9338126303       -0.0141790044       -1.6546628255
 O         -6.4380400939        2.2954836933       -4.4784773119
 H         -7.0353195708        2.8732889052       -3.9733268913
 H         -5.7262776640        2.8904089281       -4.8128772131
 O         -0.0228826513       -1.2914558698        6.9768875163
 H         -0.0225451333       -0.7007767530        7.7295165733
 H          0.4565833920       -0.8232265269        6.2544811019
 O         -3.9511156076        2.1866562746       -1.1134202123
 H         -3.2443981231        2.1282681586       -1.7824858311
 H         -4.3977840988        3.0452638219       -1.2295092053
 O         -4.2993493640        6.2767008620        2.1188384968
 H         -4.5219384063        5.6316854262        2.8110985170
 H         -5.1084814556        6.3669171545        1.5890282260
 O         -4.5128941979       -6.3002097927        1.6118919471
 H         -4.3823642074       -6.5589159578        0.6691921819
 H         -5.4563817830       -6.3355895716        1.8021330952
 O         -1.8134869295       -2.4776703989       -5.8212309051
 H         -1.6623195718       -2.4091518727       -4.8581107853
 H         -2.7685365522       -2.5729194116       -5.9284526512
 O          4.0788217731       -0.3543732584       -3.3834217833
 H          4.7455209652        0.1687936413       -2.8906921866
 H          4.2432685063       -1.2943959151       -3.2507355387
 O         10.5334333321       -1.2705983691        2.6584765563
 H         10.5034474242       -0.3313658218        2.2947440876
 H         11.3492135319       -1.3283345255        3.1554920764
 O          8.0461940787        4.6839295495       -0.1791603329
 H          7.3553751854        5.2197547428       -0.6358424360
 H          8.0940257912        4.9932787292        0.7301330772
 O          6.1750881170        2.7460304415        0.0678532764
 H          6.9240378164        3.3649620900        0.0091310145
 H          5.9624568463        2.6501483517        1.0072987756
 O          4.1943444488       -5.6117793585        3.2914903665
 H          5.1511861699       -5.5216668923        3.3847892391
 H          3.8241123312       -5.0231030206        3.9761272929
 O          1.5784228923       -1.6693035521       -2.3672611126
 H          1.8055401133       -1.5969431381       -3.3131039715
 H          2.1334772648       -2.3549922985       -1.9912538696
 O          0.5658832427       -3.7240065305       -5.2495121905
 H          1.0849896043       -2.8987240292       -5.1330842724
 H         -0.1102642187       -3.5065778956       -5.8997403821
 O         -0.9306736708       -0.0318490040       -6.4497758811
 H         -1.2487883146       -0.9577801731       -6.4007405084
 H         -0.0426413303       -0.0369181120       -6.8448608892
 O          5.8450094595        5.7571158878       -1.2205646523
 H          5.3672387461        5.1258778692       -1.7865378796
 H          5.3830028558        5.7852571905       -0.3647805994
 O         -1.7201744467        6.7809622006        3.0816440671
 H         -2.5975171382        6.8794684635        2.6850801481
 H         -1.8874943622        6.5006822109        3.9994696941
 O          0.4537319915       -3.6057660859        5.5218475557
 H          0.0890263112       -3.2543230104        4.6813753872
 H          0.3141002144       -2.9168705372        6.1831205865
 O         -9.0791127875       -2.7234225333       -2.6554072886
 H         -9.9851515925       -2.8203699875       -2.9458044474
 H         -8.9391270195       -1.7587902986       -2.4947744980
 O         -7.9933150098       -0.0075160568       -4.8709652950
 H         -8.3550676504        0.0538586320       -3.9703150815
 H         -7.5467323837        0.8326855327       -5.0255520453
 O          6.6492371087       -4.3276980095        3.1998824662
 H          7.2354400953       -3.6766753720        3.6082559365
 H          6.9427566175       -4.3964459213        2.2686806582
 O         -7.5334586754        2.9558826566        3.3994554717
 H         -6.9288410459        2.2440516435        3.0733951468
 H         -7.7436129014        2.6758188137        4.3006280326
 O         -4.4521135974        3.8712409508       -5.2702909589
 H         -3.9336468299        4.3178435680       -4.5851576828
 H         -3.8356966244        3.3764352385       -5.8252973254
 O         -2.4491381682        3.3376823754        3.9597795690
 H         -2.9237445486        2.5446226286        3.6935028480
 H         -1.9366678484        3.6447490054        3.1886891213
 O         -1.9277075339       -6.6674101111        2.2537366398
 H         -1.6478333731       -6.6762681618        3.1768758724
 H         -2.8979457642       -6.6144064938        2.2250637722
 O         -7.8165431017        3.8246035919       -2.6852295966
 H         -8.3181591796        4.5402066862       -3.0756884433
 H         -8.4435710396        3.3651037342       -2.0767938582
 O          5.8154027054       -4.5903620409       -4.3512294816
 H          6.4143616846       -4.0789716993       -4.9055223671
 H          6.2345682660       -4.6026357307       -3.4753469154
 O          2.5548589526        5.3528420205        2.3529421335
 H          2.1270498006        4.7302588970        1.7224998695
 H          1.9876253413        6.1580352195        2.3390834173
 O          0.3160811914        6.9626296482       -0.4619652556
 H          0.0014950548        6.0381568765       -0.4094566128
 H          1.2450173356        6.8684374659       -0.7483599556
 O          8.6689046195        2.5197407628       -1.7377668627
 H          8.6226821707        3.3193268851       -1.1904498412
 H          8.2785975246        2.7643588078       -2.5882994510
 O          7.3739526276        0.5161618097       -4.3522991695
 H          7.1510920842        0.0107647622       -3.5422129785
 H          7.4054981768        1.4445338865       -4.0822186075
 O          1.6862252032        0.2077459102       -6.9365039522
 H          1.7854174323        1.1299575936       -6.6229998201
 H          2.5154577441       -0.0064305890       -7.4284460103
