  129
       -218.86149744
 O          4.9784095779       -3.1208558666       -0.4904467696
 H          5.6534321224       -2.6086528548       -0.9598857969
 H          4.3525431939       -3.4101902210       -1.1757406042
 O          5.6600910536        3.0993211648        0.7987819586
 H          6.0736040568        3.8722407685        1.1823284788
 H          5.6622888279        2.4031807043        1.5012819096
 O          2.4759776371       -0.4492136179       -0.7381548810
 H          2.0305802523       -1.2824685473       -0.4853019664
 H          2.9396339767       -0.6442844188       -1.5915576495
 O          2.9055669023       -3.6046611778       -2.2771441911
 H          2.2723954406       -3.3939761241       -1.5615455066
 H          2.3589217364       -3.8762188471       -3.0387760317
 O         -3.7726592995        0.8697396890        0.2546797298
 H         -3.6554873193        1.1017647389       -0.6891627775
 H         -4.4580695534        1.4809360779        0.6030622958
 O         -5.7288075866       -0.0374712871        2.9746220790
 H         -6.0661032254       -0.2070562865        3.8538143022
 H         -4.7443526077        0.0243065967        3.0496375326
 O          3.7211366765       -1.1749506207       -2.9363196594
 H          3.3978268937       -2.1044308864       -2.9021707256
 H          4.6664746658       -1.2208322033       -2.7076741083
 O          5.4355506896        1.3883588607       -1.4833412079
 H          5.9968954636        1.9682750253       -0.9560891717
 H          4.5418394905        1.5356843063       -1.1100209127
 O          1.4814691783       -2.8638219497       -0.0889259623
 H          0.5783801956       -3.2314602203       -0.1180265982
 H          1.9772491043       -3.3384592531        0.5984620981
 O          3.2752037024        2.4198594407       -0.2669065754
 H          2.8300390978        1.8885329787        0.4197738459
 H          4.0203074029        2.8642549081        0.1786003120
 O         -6.1309499630        2.1494043019       -1.4271434558
 H         -6.5337071517        1.2666316743       -1.4388208537
 H         -6.1335628542        2.4259565471       -0.5009478608
 O          4.4100904543       -0.8771029671        1.0405948450
 H          4.7675654815       -1.6569922088        0.5845539113
 H          3.7162430659       -0.5285488206        0.4403766732
 O         -3.0881903197        0.0510558581        2.7447720806
 H         -2.6608065122       -0.8442124933        2.8119292297
 H         -3.1649991291        0.2401461028        1.7926745801
 O          6.2575665448       -1.1135925178       -1.9052517089
 H          7.0835278082       -1.0635029366       -2.3868859518
 H          6.0278396621       -0.1920415926       -1.6423689001
 O         -0.4466198857        4.9529891351       -0.4965913360
 H          0.4626078839        4.7961533520       -0.8757164046
 H         -0.5239458774        5.8954041433       -0.3479840506
 O         -5.7209097149       -1.9566738579       -3.1532204594
 H         -6.2381940751       -1.4301138324       -2.5146203950
 H         -6.1024531031       -1.8014492417       -4.0178212238
 O         -1.6005884504        3.3914765254       -2.4305652483
 H         -1.5440328202        3.9550445254       -3.2025673375
 H         -1.3105795645        3.9345237167       -1.6742361302
 O         -3.6816782849        1.5962449902       -2.3215454808
 H         -4.5908420567        1.9431856459       -2.1835401469
 H         -3.0742453786        2.3492922371       -2.4033994881
 O          3.0103202931        0.7735123138        3.9923585432
 H          2.6960511588        1.0326386322        3.0992002160
 H          3.1422276591       -0.1845345173        3.9517293055
 O          0.5702754162       -1.0290031136        2.4561538140
 H          1.4051400455       -1.4871574272        2.6986810949
 H          0.3028731892       -0.5440363034        3.2549736021
 O          1.8319013005        1.1821971062        1.6166268152
 H          1.3711347499        0.3233534858        1.7354677372
 H          1.1196355430        1.8413544104        1.5232510724
 O          3.7732420044        1.4134788059       -3.8031019981
 H          4.4690009847        1.6532425786       -3.1762884554
 H          3.6732809502        0.4515759863       -3.7178502793
 O          3.3481615796       -4.1756626684        1.4832558233
 H          3.4169487279       -5.1306096847        1.5129208426
 H          4.0592427763       -3.8661610314        0.8959610023
 O         -0.8628033060       -2.5990635252       -2.9614326621
 H         -1.7161620696       -2.1572372173       -3.0764148470
 H         -0.9406568630       -3.1267715904       -2.1509538927
 O          1.1303801743       -3.9034537870       -4.2568637822
 H          0.7451387394       -4.6013166158       -4.7864082205
 H          0.3901598987       -3.3784023071       -3.8971319109
 O         -3.2216263434       -1.0776778632       -2.6815375809
 H         -4.0755847951       -1.5285572816       -2.8381081656
 H         -3.4163314665       -0.1291009512       -2.7570368038
 O         -5.1806757263       -1.3375869981        0.5951821001
 H         -5.5327432088       -1.0735284211        1.4613158277
 H         -4.5405244875       -0.6170431393        0.3681349701
 O         -3.5739625150       -3.5431414509        0.9212521240
 H         -4.1727342014       -4.1637277537        1.3380518004
 H         -4.1143478093       -2.7639824759        0.6785562068
 O         -1.9223335827       -2.2853932958        2.7362845747
 H         -1.0364147217       -2.0558456441        2.4188916798
 H         -2.3813048988       -2.7699779887        2.0265215880
 O         -1.0636798734       -3.6787456121       -0.3822019094
 H         -1.7168184920       -4.2896568340       -0.0333153777
 H         -1.4768718320       -2.7895829619       -0.2599705603
 O         -0.2734093670        2.6797773722        0.9532888702
 H         -0.8234190725        2.5420459188        1.7572080090
 H         -0.4272540047        3.5873952757        0.6456233872
 O          5.4654222168        1.1549342944        2.5821735186
 H          4.7959185734        1.2028951559        3.2794342266
 H          5.2315949024        0.3832242123        2.0400019950
 O          3.0179275204       -1.8916126221        3.0609316635
 H          3.5660024476       -1.4984755458        2.3393160798
 H          3.1147672301       -2.8429666467        2.9427624316
 O         -6.9766456114       -0.5224248370       -1.1879433405
 H         -7.8564285711       -0.7770670564       -0.9080539204
 H         -6.3448351599       -0.8746725989       -0.5122282674
 O          1.8615112895        4.3505206093       -1.5458087733
 H          2.4038080853        3.7215971225       -1.0310896609
 H          1.7144086307        3.9117277259       -2.3961942535
 O         -1.5065329959        2.1105185479        3.2433124365
 H         -2.0937949740        1.3279201686        3.1136597615
 H         -0.8041690814        1.7906607726        3.8307473990
 O          1.4116970216        2.4955454682       -3.5457493401
 H          2.3299487619        2.1239062080       -3.6507048952
 H          1.0100315604        2.4619247990       -4.4141233638
 O         -3.8316236422        3.6402717990        2.9415004524
 H         -3.8406698468        4.4114989657        3.5078135503
 H         -2.9934838811        3.1779796698        3.1023405621
 O         -5.6928535087        2.3026908784        1.4156608581
 H         -5.9517345320        1.5828919718        2.0128485873
 H         -5.1381436663        2.9005130230        1.9446838338
 O          0.4109775388        0.6720996381        4.6626572959
 H          0.2520313760        0.4284560376        5.5747088395
 H          1.3798944862        0.8296707792        4.5731434263
 O         -0.2365491164        0.4699816905       -0.8073638951
 H          0.7095304278        0.2968609176       -0.9130986379
 H         -0.3045077767        1.3235354217       -0.3590326313
 O         -2.1077511902       -1.3140471577       -0.1327080093
 H         -2.5959971027       -1.2325179764       -0.9717134500
 H         -1.3796404968       -0.6638261148       -0.2415899555
 O         -1.1352156210        0.5021591159       -3.9030764901
 H         -1.0639514788        1.1625122291       -3.2059134455
 H         -0.9257671111       -0.3299006920       -3.4702560397
