  144
       -244.31549121
 O         -2.2152553022       -4.1516078615       -3.9393047936
 H         -2.2290201483       -5.0587226779       -4.2460281131
 H         -1.2882711730       -3.8596516846       -3.9452468668
 O          4.8652740223       -3.0135824828       -0.3499482659
 H          4.2862820818       -3.4208376172       -1.0288761049
 H          4.2199213427       -2.6382154306        0.2877143831
 O          6.9214099948       -2.8573605820        1.4774763980
 H          7.5602275245       -2.3089162231        0.9922443772
 H          6.2780042789       -3.1662764653        0.8210726272
 O          6.1909963987        0.6269117399        1.0053197528
 H          5.9768039677        0.1161226964        0.1963357980
 H          5.9613344924        0.0620711451        1.7671157733
 O          3.7230310119        2.6874628150       -2.1930843334
 H          3.9870344204        2.6719942859       -1.2580726348
 H          2.9360616673        3.2507655950       -2.2246539235
 O          0.1709767420       -2.8027206719       -3.7920848019
 H          0.2596454823       -2.6067982967       -2.8374164730
 H          1.0413925458       -2.6131159473       -4.1671664548
 O         -5.0707958377       -0.3472207420       -1.0733212535
 H         -4.7124619941        0.2644058032       -1.7549591825
 H         -5.9477449582        0.0036735260       -0.8523055069
 O          3.5066062097        4.0734876163        2.4301089222
 H          4.1112476171        4.7847417142        2.6428600742
 H          2.7937109975        4.4717369019        1.8882025575
 O         -4.2167500171        2.7491924067       -0.1459247758
 H         -4.8949396650        2.4734426532        0.4789108167
 H         -3.4436315680        2.1632889057        0.0058437655
 O         -0.9382154217        5.2543282511        1.3694161280
 H         -1.5145857376        5.2129155353        0.5749105689
 H         -1.1818681299        4.4976172612        1.9188434745
 O         -3.4176461115        1.3567389294        2.5216166703
 H         -4.3308879668        1.6377843854        2.3938498526
 H         -3.3355245168        0.5054998140        2.0479015543
 O          2.8485288420       -1.9601270152        1.0070401381
 H          2.8512329428       -1.6825671282        1.9537965339
 H          2.1900100078       -2.6754259487        0.8920298335
 O          1.5861756244        4.8929200279        0.7305057188
 H          0.6783133441        5.2089583038        0.9649773092
 H          1.6061106359        4.7855754474       -0.2358011065
 O         -4.3606756651        1.6458030433       -2.6637992080
 H         -4.3082668363        2.2418883974       -1.8960457973
 H         -3.4985689602        1.6650915874       -3.1019805536
 O         -1.4515275013        2.9814838565        3.0761592583
 H         -1.7950245014        3.5075946882        3.7998184657
 H         -2.1883304886        2.3820462123        2.7957714898
 O         -6.0143748597       -0.8543553843        2.3430353021
 H         -5.1052374022       -1.0568076023        2.0529320413
 H         -6.5975647549       -1.3374176384        1.7327450873
 O          8.3997055984       -0.8557824976        0.2097107140
 H          7.8831092695       -0.1202020271        0.5869831269
 H          9.3253742187       -0.6634098220        0.3599586318
 O          1.2632816371       -4.0657613815        0.6127130521
 H          0.6967066476       -4.1594901008        1.3978406546
 H          1.7056306739       -4.9018694272        0.4637383695
 O          0.5974914738       -1.9505441326        4.2244550942
 H          0.1769878927       -1.0950262637        4.3842536459
 H          1.5323951813       -1.7499788584        4.0633512998
 O         -0.5518670452       -0.0899243553        1.6287362179
 H         -0.4318479290        0.1076166769        2.5746545081
 H         -0.8220316756       -1.0083663641        1.5377731008
 O         -0.8840322260        2.8110996273       -1.9338304186
 H         -1.1832437335        2.4102409316       -2.7624261741
 H         -1.2234927482        2.2241750401       -1.2150618183
 O         -1.8990770374       -1.1989919918       -4.5067222590
 H         -2.5553523579       -1.8398299873       -4.7922590328
 H         -1.0898503312       -1.7210671786       -4.3198061797
 O         -1.3898259200       -2.5268293839        0.5917178836
 H         -1.1330565223       -3.1244899673        1.3124672973
 H         -1.8562959528       -3.0681826498       -0.0714601470
 O         -0.0441222547        0.7844228003        4.1525346065
 H         -0.5769301416        1.5754284654        3.9768105816
 H          0.8813817095        1.0637425216        4.0388046968
 O          3.0830004438       -1.0216987481        3.4372997303
 H          4.0532923183       -1.0916536148        3.4601040070
 H          2.8824672669       -0.0646095896        3.3788007128
 O         -2.4434208478        4.7996326611       -0.8035846283
 H         -3.2132885934        4.2752994843       -0.5395436362
 H         -1.8797566390        4.1938202913       -1.3131675648
 O          3.9826167379        0.1287520088       -2.8711545892
 H          3.9575244160        1.1111517992       -2.8523484209
 H          4.8378564360       -0.1336485399       -2.4844332082
 O          5.7885209924       -1.1242904601        3.0726431117
 H          6.1694770057       -1.8694746868        2.5289631013
 H          6.3376548608       -1.0611926261        3.8547824495
 O         -0.4116516322       -3.8870244132        2.7560956409
 H         -0.0400350941       -3.1562489782        3.3135921630
 H         -0.8325049114       -4.4953291737        3.3640691014
 O         -3.6120743397       -0.9450070970        1.1139612456
 H         -2.8553263606       -1.5172664788        0.9099568942
 H         -4.0408969051       -0.7307430632        0.2583035162
 O         -7.4840708525        0.8208998001       -0.4175505888
 H         -7.0845662051        1.2652257431        0.3596142555
 H         -7.6631672875        1.4964665608       -1.0734071775
 O         -6.1670542532        1.6623019741        1.7999497476
 H         -6.7043933588        2.0869556281        2.4695093873
 H         -6.1222946882        0.6825735876        2.0554003959
 O         -7.6668787407       -1.8743226632        0.3769707821
 H         -7.7583710869       -1.0014102974       -0.0360871045
 H         -8.5525228155       -2.1940384195        0.5530654345
 O          1.3820639863        4.2295238397       -1.9379804866
 H          1.2069087981        4.9797368721       -2.5075452198
 H          0.5545251749        3.6999140468       -1.9149962096
 O          0.7833001409        2.4129843963        1.3641184796
 H         -0.0325835528        2.5641248582        1.8540725123
 H          1.1148595998        3.2960264044        1.1024917795
 O          2.4197409719        1.5721348574        3.2121584007
 H          2.9652680664        2.3551982600        3.3391995033
 H          1.8415801858        1.8002397350        2.4351029729
 O          2.8414584995       -1.9408967971       -4.2126958342
 H          3.2416832331       -1.1461507884       -3.8052815026
 H          3.4039319570       -2.1796612756       -4.9503212119
 O         -5.5157858823       -2.9898874961       -1.2733657603
 H         -5.3428597065       -2.0288100840       -1.3364525812
 H         -6.2367977103       -3.0635549751       -0.6413163611
 O         -2.9243263358       -3.5820404605       -1.3415986246
 H         -2.7425367718       -3.8758549328       -2.2509395710
 H         -3.9007749342       -3.5271456157       -1.2645744503
 O          5.9412631279       -0.8199345343       -1.2742929994
 H          6.8905853004       -0.9614616990       -1.3376474205
 H          5.5535272883       -1.6868048676       -0.9753694168
 O         -2.0312842419        1.1926662972       -0.1915957831
 H         -1.5128935524        0.8336717838        0.5574624427
 H         -2.2601500416        0.4228896543       -0.7476907509
 O          4.1049146275        2.2264582146        0.5082207789
 H          3.9062680487        2.8714842877        1.2105762822
 H          4.9432513869        1.7848595573        0.7551112251
 O          2.8381890621       -3.6234536039       -1.9677220516
 H          2.0840696245       -3.3003860268       -1.4576197906
 H          2.8539663414       -3.0995146524       -2.7832779108
 O         -2.4336303332       -0.9324561060       -1.8009449102
 H         -2.4345422116       -0.9063652227       -2.7672717027
 H         -2.6573035154       -1.8514214751       -1.5649759206
 O         -1.9496605414        1.5216864063       -4.1455983758
 H         -1.8901602769        0.5664242280       -4.3265318596
 H         -2.1231120085        1.9489590233       -4.9855066145
 O          0.6310022411       -2.0051440611       -1.3279624297
 H         -0.0057960002       -2.1314944904       -0.6128538088
 H          0.8992918788       -1.0677322432       -1.2637054279
 O          1.2303846072        0.6657112628       -0.9751899025
 H          2.1855134685        0.7759292125       -1.0200515803
 H          0.9610449041        1.0178316265       -0.1160012436
 O          0.7650520037        0.9590428806       -3.7460431348
 H          1.6862452338        0.7115175975       -3.8350124469
 H          0.6111413431        0.9587634529       -2.7899644794
