  90
       -152.68701943
 O          1.7565632981       -3.5346068530       -1.2516966637
 H          1.9064300446       -4.4294199659       -1.5588660558
 H          0.9636227549       -3.2063651380       -1.7562682446
 O         -0.1541115586       -2.4916982247       -2.6872479859
 H          0.0623671788       -1.5658030824       -2.8782414232
 H         -1.1256234780       -2.5226531262       -2.5737123434
 O          3.3536671846       -3.2415010342        1.0882881013
 H          2.8151769346       -3.3358759793        0.2908910622
 H          3.7889292205       -2.3714204046        1.0354871335
 O          0.7378889244        0.2161642180       -2.7656824103
 H          0.5270618218        0.7473744352       -3.5410409532
 H          0.0630692515        0.5048932674       -2.0976878697
 O         -2.7827197487       -2.0660037938       -2.1592749438
 H         -2.6340275668       -1.2597520108       -2.6938898153
 H         -2.5950420637       -1.8253353368       -1.2249681989
 O         -3.4327908888        3.4408509611        0.8707943099
 H         -2.7966993877        3.0906972182        1.5173334085
 H         -3.4072685964        4.3949288557        0.9530114248
 O          4.6224900011       -0.7646119740        1.1426718956
 H          4.7063988336       -0.5253117874        0.1629159926
 H          5.5266429449       -0.8266379578        1.4541523221
 O          0.3787337895       -1.8109769631        5.0250292996
 H          0.8151590045       -2.4200510022        4.4142451881
 H          1.0846409978       -1.3775540722        5.5107085811
 O         -5.1986904454       -1.0222704005       -1.3764060762
 H         -4.5093011749       -1.6077755116       -1.7442582074
 H         -4.8600754276       -0.7297683850       -0.4935866678
 O          3.0781409049       -1.5733175330       -2.7176661300
 H          2.7200290092       -2.3300844358       -2.2277058885
 H          2.3262206604       -1.0015329283       -2.9134862160
 O         -4.9231129531        1.1059282957       -2.8916535046
 H         -5.6960138626        1.2215684853       -3.4434463755
 H         -5.0980474159        0.3074461808       -2.3231843091
 O         -0.6460571476        0.4771547846        3.8368488434
 H         -0.6126093452       -0.3520913334        4.3374702267
 H          0.2790908857        0.8174081912        3.8808344352
 O          4.8230019480       -0.0862814706       -1.3326241777
 H          4.3099263410        0.7332047704       -1.4634866211
 H          4.3608420519       -0.7368147378       -1.9012655399
 O          2.4448616823        0.9945097051        1.1293364975
 H          1.8488300046        0.2030157049        0.9228003661
 H          3.3221450828        0.6039871422        1.2486801560
 O         -0.9518976499        1.0078388661       -0.8752692017
 H         -0.4863922853        1.6813135583       -0.3346327033
 H         -1.6954279070        1.4987344538       -1.2892671746
 O         -0.8052567315        2.5222707237       -3.4989952272
 H         -0.0879649527        3.0130929340       -3.0455419199
 H         -1.6093108732        2.8668265815       -3.0905082149
 O          1.8958934609        1.2743402998        3.8027726454
 H          2.0803694375        1.3737890711        2.8523833150
 H          2.4498115871        0.5155022804        4.0618045682
 O         -1.5055406224        2.7222097031        2.7467423778
 H         -1.3402317235        1.8238406900        3.1079662092
 H         -1.3315720798        3.3229921407        3.4733161128
 O          1.0028853980        3.7551116153       -1.8964970028
 H          0.6459370988        3.6998421019       -1.0008500159
 H          1.8021970204        3.2007224622       -1.8828476700
 O          2.7516072113        1.6733053441       -1.5107305129
 H          2.1169236879        1.0982776400       -1.9769755637
 H          2.5956735716        1.5361566340       -0.5568689967
 O          2.1738118854       -3.4056077659        3.4467529592
 H          2.4921736901       -4.1929834330        3.8895788912
 H          2.5778551441       -3.4164345005        2.5418541177
 O         -2.3693716089        0.1801085389       -3.6109261103
 H         -1.7618758416        0.9328808774       -3.6648520262
 H         -3.2567965677        0.5626904945       -3.5496148676
 O          0.3106353873        2.7905034021        0.6926873578
 H          1.1141754800        2.3446246478        0.9909024330
 H         -0.2956204184        2.8257503579        1.4548239351
 O          3.4369061238       -0.9774258347        3.8478153104
 H          2.9669815383       -1.8275410418        3.8055489301
 H          3.8616235879       -0.8806992983        2.9877828150
 O         -2.9541981947        2.6040680787       -1.6901522856
 H         -3.2118002318        2.9447203491       -0.8148438996
 H         -3.7359263631        2.1732217348       -2.0704281871
 O          1.0708295821       -1.0585005976        0.2160590770
 H          1.0966862005       -1.0890803372       -0.7420845904
 H          0.5615978804       -1.8422990960        0.4993600283
 O         -2.3425546033       -0.9316346978        0.2413268451
 H         -3.0838275501       -0.3838081818        0.5621553931
 H         -1.6884102249       -0.2787984794       -0.0916873113
 O         -0.7463372783       -3.0610966235        0.5642692154
 H         -1.4196894239       -2.3625021045        0.6363465242
 H         -0.9119740803       -3.5097667761       -0.2674046799
 O         -4.3492584353        0.6859484896        1.0046615363
 H         -4.2624170255        1.6386382586        0.8889600158
 H         -4.1799029630        0.5094810200        1.9499732592
 O         -3.3793383861       -0.1198947298        3.3997566688
 H         -3.4630176962       -1.0731843358        3.4575992031
 H         -2.4352992268        0.0730728633        3.4982607596
