  90
       -152.67861514
 O          2.2074202423       -2.8217248967       -1.6637749861
 H          2.6479929862       -3.5327892868       -2.1316850479
 H          1.3623851112       -2.6556146151       -2.1663815626
 O          0.0428786314       -2.2535178880       -3.0090867868
 H          0.1226861839       -1.2925373827       -3.1494024182
 H         -0.8942838723       -2.3972918376       -2.7732414736
 O          2.4266084230       -3.8635579688        0.9844755459
 H          2.2637990919       -3.5274080541        0.0911962554
 H          3.1081843005       -3.2721407457        1.3675139417
 O          0.2204581301        0.4852699115       -2.9649546993
 H         -0.0743145471        1.0038222867       -3.7212694150
 H         -0.4062242941        0.7356917822       -2.2411085567
 O         -2.5610000183       -2.0261231946       -2.1760721149
 H         -2.5859211565       -1.1857814459       -2.6765213963
 H         -2.3327967241       -1.8037103679       -1.2501246946
 O         -3.0764381500        4.1556385469        0.7851348165
 H         -2.5043269491        3.6676059895        1.3998613816
 H         -2.6321664429        4.9857814241        0.6038070352
 O          4.0730053003       -2.0304121645        2.0800235143
 H          4.3867994891       -1.3218720359        1.4926423471
 H          3.6739451584       -1.5881652094        2.8437513275
 O          0.3542276268       -1.9420096710        4.4434665425
 H          0.4285548932       -2.7124419762        3.8279192459
 H         -0.0520493907       -2.2776434135        5.2439978008
 O         -5.0084339980       -1.3274002322       -1.1183273170
 H         -4.2866964966       -1.7718451095       -1.6035397421
 H         -4.6570199615       -1.1531593714       -0.2125411965
 O          4.0688034620       -0.7263140504       -1.9380303465
 H          3.4107929613       -1.4390268191       -1.8809685523
 H          3.5890666896        0.0852116102       -2.2017084351
 O         -5.2106651073        1.0475006917       -2.2308582837
 H         -5.9969595500        1.0534103861       -2.7764315178
 H         -5.1867640642        0.1562898518       -1.7882093753
 O         -0.4274082949        0.7604104252        3.7154379649
 H         -0.3174051302       -0.1550198815        3.9996866157
 H          0.4871350735        1.1243594603        3.6571439198
 O          4.8897086997        0.0229388010        0.4229047265
 H          5.8227424142        0.2278748118        0.3660410444
 H          4.6239963510       -0.3111841606       -0.4810056054
 O          2.6107885514        1.4775018112        0.7038496797
 H          2.0391720653        0.6586016823        0.5349377950
 H          3.5230268888        1.1395183703        0.6963410119
 O         -1.2141402937        1.2613188418       -0.8697858504
 H         -0.6275955866        1.9347293415       -0.4674433811
 H         -1.9653600079        1.7732670675       -1.2433249015
 O         -1.3366762038        2.7462952174       -3.6999656336
 H         -0.5295482918        3.1849084348       -3.3633607578
 H         -2.0480816480        3.0836283619       -3.1398727993
 O          2.0697984470        1.6525637874        3.3744225578
 H          2.2944611916        1.6798960232        2.4230160956
 H          2.5318601454        0.8770962680        3.7251867594
 O         -1.1986332187        3.0299564338        2.5289221038
 H         -1.1027047485        2.1189161884        2.8712724643
 H         -0.9058684586        3.5978436484        3.2440438164
 O          0.8502866303        3.7605321413       -2.4171744114
 H          0.6406175565        3.7426271572       -1.4736234372
 H          1.6173035731        3.1765612861       -2.5242975424
 O          2.5610173694        1.5365654585       -2.1415631107
 H          1.7292356803        1.0997030840       -2.4245582475
 H          2.5271198958        1.6299905995       -1.1753150925
 O          0.6544657968       -4.1094887435        2.9303023703
 H          0.9122277256       -4.9299453635        3.3514576747
 H          1.2657659812       -4.0145497580        2.1554600849
 O         -2.7905735560        0.3394603336       -3.4847562945
 H         -2.2742142861        1.1299668496       -3.6997087415
 H         -3.6476640141        0.6586818920       -3.1656894551
 O          0.4056099477        3.0863415893        0.2994651449
 H          1.2562940104        2.6762703371        0.5185485928
 H         -0.0945479912        3.1455192970        1.1327275450
 O          2.8433693716       -0.8541536718        4.3125103045
 H          3.2771553238       -1.0610817877        5.1408087783
 H          1.9399351157       -1.2303498603        4.3566856677
 O         -3.2202559511        2.8773928263       -1.6227017279
 H         -3.3232811981        3.3549283316       -0.7788707896
 H         -4.0239933304        2.3536731707       -1.7595503855
 O          0.4543101294       -0.1553803939        0.8126105424
 H         -0.2011981908        0.1702675532        0.1702431186
 H          0.0918751662        0.0545276972        1.6806534314
 O         -1.2246771714       -2.3297452686        0.3324329951
 H         -0.4026455827       -1.8478399195        0.4925851226
 H         -0.9763377877       -3.2541934835        0.1645930968
 O         -0.0430835336       -4.7230910631       -0.3912382073
 H          0.1844593978       -4.4572737212       -1.2859203584
 H          0.7747013174       -4.7973050384        0.1109277376
 O         -3.2063160513        0.5858072275        3.1329922203
 H         -3.8323991030        0.3228282454        3.8075402942
 H         -2.3251963473        0.5773031990        3.5230902458
 O         -3.6628579918       -1.3796485766        1.2198945059
 H         -3.4718547291       -0.6061229668        1.7682644417
 H         -2.8135426680       -1.7915060001        0.9955969659
  90
       -152.68054714
 O          2.3999305048       -2.9184322890       -1.6576054187
 H          2.8577661021       -3.6217561391       -2.1206061451
 H          1.5524447549       -2.7749785359       -2.1626748850
 O          0.2249279849       -2.4080790591       -3.0097793936
 H          0.2861372999       -1.4462934017       -3.1544587101
 H         -0.7102013416       -2.5703047466       -2.7788377849
 O          2.6416340291       -3.9382480750        0.9955826941
 H          2.4743976779       -3.6100267779        0.1001562825
 H          3.3082559793       -3.3300590375        1.3789242996
 O          0.3601414174        0.3337503200       -2.9796030746
 H          0.0594467952        0.8443942586       -3.7391528426
 H         -0.2752436365        0.5746581111       -2.2603064476
 O         -2.3898362086       -2.2316690758       -2.1919655560
 H         -2.4235236133       -1.3938261224       -2.6957441526
 H         -2.1687575706       -2.0015486889       -1.2658766310
 O         -2.9970010450        3.9654269914        0.7131862298
 H         -2.4398746701        3.4782025091        1.3416386616
 H         -2.5405614030        4.7883720404        0.5296108765
 O          4.2454371134       -2.0675009386        2.0895422916
 H          4.5443799121       -1.3543594825        1.5000863258
 H          3.8320150710       -1.6314144587        2.8491708232
 O          0.5234677506       -2.0698482746        4.4491035506
 H          0.6122433637       -2.8354868654        3.8296457826
 H          0.1274035324       -2.4181629772        5.2490989049
 O         -4.8532125404       -1.5614127009       -1.1557400216
 H         -4.1215367445       -1.9975412453       -1.6339400348
 H         -4.5102320528       -1.3769545607       -0.2484061433
 O          4.2180733212       -0.7863660285       -1.9324987998
 H          3.5747151803       -1.5123220306       -1.8749280037
 H          3.7232379047        0.0140033577       -2.2017958766
 O         -5.0862420900        0.8034385029       -2.2840281475
 H         -5.8685065558        0.7921562719       -2.8351657751
 H         -5.0512127469       -0.0834397356       -1.8336371190
 O         -0.3338440987        0.6049218227        3.7071192117
 H         -0.1982052872       -0.3051823428        3.9975666292
 H          0.5697620749        0.9949018863        3.6498541046
 O          5.0153748810       -0.0013317140        0.4250388609
 H          5.9414860194        0.2320869483        0.3658814615
 H          4.7594726968       -0.3486205331       -0.4767042881
 O          2.7013654436        1.3977953878        0.6975842466
 H          2.1484877875        0.5654522946        0.5306002858
 H          3.6209860546        1.0801699817        0.6953229862
 O         -1.1032234185        1.0978408090       -0.8997020648
 H         -0.5346193886        1.7849843443       -0.4945672684
 H         -1.8585030451        1.5929797022       -1.2873831761
 O         -1.2252649676        2.5583792919       -3.7445245415
 H         -0.4336400063        3.0198157977       -3.4016282896
 H         -1.9514769755        2.8849383030       -3.1970130270
 O          2.1374042955        1.5691462037        3.3653186699
 H          2.3664933428        1.5995455770        2.4152388854
 H          2.6193587022        0.8082040037        3.7210804435
 O         -1.1490556334        2.8514008065        2.5000395426
 H         -1.0355249597        1.9441823531        2.8459600665
 H         -0.8778102939        3.4278879875        3.2166767695
 O          0.9180595836        3.6336130718       -2.4390597474
 H          0.7009266521        3.6156157916       -1.4972920860
 H          1.6980985319        3.0652853673       -2.5369793989
 O          2.6680414368        1.4470004690       -2.1469740804
 H          1.8489280508        0.9888724664       -2.4335647332
 H          2.6274432391        1.5401079890       -1.1809046994
 O          0.8558179896       -4.2231946008        2.9223643161
 H          1.1130119823       -5.0478018086        3.3364888949
 H          1.4749069187       -4.1144669611        2.1551618875
 O         -2.6435515301        0.1269566149       -3.5094938756
 H         -2.1402846825        0.9230694781       -3.7335022673
 H         -3.5080477101        0.4348086602       -3.1992041166
 O          0.4670228772        2.9589885831        0.2796863454
 H          1.3259523639        2.5666408137        0.4996836650
 H         -0.0374368926        2.9997278170        1.1113758574
 O          2.9800087016       -0.9114905876        4.3124058204
 H          3.4187863685       -1.1014107520        5.1420890304
 H          2.0879444073       -1.3138905224        4.3584989203
 O         -3.1296313466        2.6723509151       -1.6866248201
 H         -3.2393514788        3.1558973942       -0.8472152937
 H         -3.9253576120        2.1354103483       -1.8186142274
 O          1.0536492646       -0.6275442018       -0.0400838172
 H          0.2170619680       -0.2200201873       -0.3159930843
 H          1.3519450352       -1.1934875958       -0.7610732786
 O         -0.4894212620       -2.6485187441        1.0857335789
 H          0.2588656438       -2.0538194268        0.9247365461
 H         -0.2242315027       -3.2800705640        1.7625432506
 O         -2.6467146093       -1.2068246182        0.3847312599
 H         -1.9519518719       -1.6531262137        0.8895169432
 H         -2.7480571246       -0.3133081850        0.7329149297
 O         -4.0849376556        1.1499751368        0.9583152305
 H         -4.0019003818        2.0955354778        1.1027079097
 H         -4.6206058113        1.0298619228        0.1696873652
 O         -0.8486510736       -4.5502210600       -1.0095383150
 H         -0.7483730587       -3.9007779810       -0.2989397583
 H         -1.5559798517       -4.2238915038       -1.5703835000
  90
       -152.67508264
 O          3.4194380984       -3.4079460681        1.7032218628
 H          4.1100896121       -3.9815590554        2.0357613952
 H          3.6230580908       -3.2370650421        0.7589530739
 O          1.4430570528       -2.6988439750       -1.3921236460
 H          2.4046590246       -2.7764883988       -1.2807890147
 H          1.2944385818       -2.3547894529       -2.2901376799
 O          0.6734863070       -3.3292458499        2.3386368781
 H          1.6237332817       -3.4559458049        2.2020429019
 H          0.2625307223       -3.7177596746        1.5323393061
 O          0.9857043152       -1.4924781215       -3.7993554066
 H          0.3163060802       -0.7697041210       -3.6829002621
 H          0.7944303716       -1.8937620333       -4.6474978950
 O         -0.2947191086       -4.2576859314        0.0130076722
 H          0.3851149368       -3.8761755584       -0.5705839015
 H         -1.1462973086       -3.8752165154       -0.2957926411
 O         -3.2844632199        2.4918292637        1.8170571245
 H         -3.6402002372        2.1309031995        0.9859396034
 H         -3.2885381777        1.7521428766        2.4471268371
 O          2.0657163346        3.5469476969       -1.7173588177
 H          2.6608466267        4.2940389982       -1.7790428278
 H          2.6393669832        2.7408065756       -1.5775092623
 O         -2.0158554881       -2.3112258840        2.5766520257
 H         -1.2934114048       -2.8893021285        2.8387662571
 H         -1.7374318930       -1.9422895759        1.6877256600
 O         -4.2966469361        1.1281092557       -0.3458485648
 H         -4.5719738402        0.4418909962        0.3235669468
 H         -5.1126394730        1.4729857830       -0.7106921107
 O          4.1340427204       -2.6876504922       -0.8049915197
 H          4.4372311169       -1.7660283161       -0.5365474756
 H          4.8317158809       -3.0415684143       -1.3567199204
 O         -5.0000344856       -0.4833530287        1.5835172041
 H         -4.4419796612       -0.2055412599        2.3250894998
 H         -4.8780239940       -1.4492101747        1.5097836653
 O         -0.5974494160        1.4734866795        3.9082443819
 H         -0.4971206439        2.0856228427        3.1613599779
 H          0.0209920157        0.7450625489        3.7614611461
 O          4.9334573849       -0.3501930140       -0.0082580117
 H          4.5636888601        0.3473183413       -0.5877795053
 H          4.4848687595       -0.2466585193        0.8433429473
 O          2.8812909995        0.5680703808       -4.0323207197
 H          2.3094903688       -0.2121237156       -3.9450154801
 H          2.3045540293        1.2940585839       -4.3057766781
 O          0.9581405119        2.6992853706       -4.0918564667
 H          0.1975216810        3.3003378592       -4.2175206893
 H          1.3668024827        3.0027414639       -3.2593942153
 O         -1.3105944510        4.1539167211       -3.7299055062
 H         -1.0989227094        4.4784428723       -2.8460797314
 H         -1.9232528816        3.4230875910       -3.5776237995
 O          3.2612452877       -0.6658605616        2.2531944477
 H          3.3676756490       -1.6247426640        2.1477211756
 H          2.4985874742       -0.5608204610        2.8427462963
 O         -2.9394115721        0.1925420895        3.3986089103
 H         -2.6053743332       -0.7013821114        3.2158346811
 H         -2.1657834496        0.6812492283        3.7465307520
 O         -0.6021417292        3.8455715772       -0.9313783124
 H         -0.6465775826        3.7181040211        0.0331453028
 H          0.3317317543        3.7301223026       -1.1711566871
 O          3.4497204388        1.3395612056       -1.5267201258
 H          3.3999001212        1.0421200636       -2.4617818936
 H          2.7220895047        0.8288295178       -1.0511987328
 O         -4.4243928216       -3.1510309122        1.7661099781
 H         -3.5347395124       -2.9425955316        2.1277248350
 H         -4.9215599242       -3.5610846397        2.4742151632
 O         -0.6295172117        0.5494611236       -3.6695055019
 H         -0.0373566485        1.2955235173       -3.9004834884
 H         -1.3259934178        0.9505377036       -3.1177760047
 O         -0.8110735263        3.3443923865        1.7855219510
 H         -0.8144690315        4.1714948750        2.2699451123
 H         -1.7607410775        3.0434371100        1.7683101681
 O          0.8554603721       -0.9571439394        3.5965756504
 H          0.8561048744       -1.2157298175        4.5193253496
 H          0.6970584358       -1.7833238544        3.0853073028
 O         -2.2777330326        2.0229915430       -2.0997177567
 H         -2.9522998049        1.6911740193       -1.4936866303
 H         -1.7108286219        2.6357729761       -1.5887551227
 O         -1.1485756997       -0.8874083330        0.4583466017
 H         -1.5648350781       -1.4440625367       -0.2175645577
 H         -0.2463986907       -0.7043357222        0.1567809172
 O          1.5639975186       -0.0221610246       -0.0773614686
 H          1.9892882009       -0.7535147469        0.3830619825
 H          1.5718742263        0.7325659367        0.5445575941
 O         -2.6857375307       -2.7453627085       -0.8392269174
 H         -3.4956894636       -2.8139366643       -0.3251688301
 H         -2.8998780844       -2.2795544214       -1.6688144037
 O          1.7153908008        2.1476336828        1.5095701316
 H          1.9704180455        1.9476920408        2.4110908165
 H          0.8530127440        2.5861428098        1.5256014335
 O         -2.9405399545       -1.0926981559       -3.0086537626
 H         -2.0907896717       -0.9334441745       -3.4345033263
 H         -3.2081673636       -0.2458673401       -2.6399535642
  90
       -152.68701943
 O          1.7565632981       -3.5346068530       -1.2516966637
 H          1.9064300446       -4.4294199659       -1.5588660558
 H          0.9636227549       -3.2063651380       -1.7562682446
 O         -0.1541115586       -2.4916982247       -2.6872479859
 H          0.0623671788       -1.5658030824       -2.8782414232
 H         -1.1256234780       -2.5226531262       -2.5737123434
 O          3.3536671846       -3.2415010342        1.0882881013
 H          2.8151769346       -3.3358759793        0.2908910622
 H          3.7889292205       -2.3714204046        1.0354871335
 O          0.7378889244        0.2161642180       -2.7656824103
 H          0.5270618218        0.7473744352       -3.5410409532
 H          0.0630692515        0.5048932674       -2.0976878697
 O         -2.7827197487       -2.0660037938       -2.1592749438
 H         -2.6340275668       -1.2597520108       -2.6938898153
 H         -2.5950420637       -1.8253353368       -1.2249681989
 O         -3.4327908888        3.4408509611        0.8707943099
 H         -2.7966993877        3.0906972182        1.5173334085
 H         -3.4072685964        4.3949288557        0.9530114248
 O          4.6224900011       -0.7646119740        1.1426718956
 H          4.7063988336       -0.5253117874        0.1629159926
 H          5.5266429449       -0.8266379578        1.4541523221
 O          0.3787337895       -1.8109769631        5.0250292996
 H          0.8151590045       -2.4200510022        4.4142451881
 H          1.0846409978       -1.3775540722        5.5107085811
 O         -5.1986904454       -1.0222704005       -1.3764060762
 H         -4.5093011749       -1.6077755116       -1.7442582074
 H         -4.8600754276       -0.7297683850       -0.4935866678
 O          3.0781409049       -1.5733175330       -2.7176661300
 H          2.7200290092       -2.3300844358       -2.2277058885
 H          2.3262206604       -1.0015329283       -2.9134862160
 O         -4.9231129531        1.1059282957       -2.8916535046
 H         -5.6960138626        1.2215684853       -3.4434463755
 H         -5.0980474159        0.3074461808       -2.3231843091
 O         -0.6460571476        0.4771547846        3.8368488434
 H         -0.6126093452       -0.3520913334        4.3374702267
 H          0.2790908857        0.8174081912        3.8808344352
 O          4.8230019480       -0.0862814706       -1.3326241777
 H          4.3099263410        0.7332047704       -1.4634866211
 H          4.3608420519       -0.7368147378       -1.9012655399
 O          2.4448616823        0.9945097051        1.1293364975
 H          1.8488300046        0.2030157049        0.9228003661
 H          3.3221450828        0.6039871422        1.2486801560
 O         -0.9518976499        1.0078388661       -0.8752692017
 H         -0.4863922853        1.6813135583       -0.3346327033
 H         -1.6954279070        1.4987344538       -1.2892671746
 O         -0.8052567315        2.5222707237       -3.4989952272
 H         -0.0879649527        3.0130929340       -3.0455419199
 H         -1.6093108732        2.8668265815       -3.0905082149
 O          1.8958934609        1.2743402998        3.8027726454
 H          2.0803694375        1.3737890711        2.8523833150
 H          2.4498115871        0.5155022804        4.0618045682
 O         -1.5055406224        2.7222097031        2.7467423778
 H         -1.3402317235        1.8238406900        3.1079662092
 H         -1.3315720798        3.3229921407        3.4733161128
 O          1.0028853980        3.7551116153       -1.8964970028
 H          0.6459370988        3.6998421019       -1.0008500159
 H          1.8021970204        3.2007224622       -1.8828476700
 O          2.7516072113        1.6733053441       -1.5107305129
 H          2.1169236879        1.0982776400       -1.9769755637
 H          2.5956735716        1.5361566340       -0.5568689967
 O          2.1738118854       -3.4056077659        3.4467529592
 H          2.4921736901       -4.1929834330        3.8895788912
 H          2.5778551441       -3.4164345005        2.5418541177
 O         -2.3693716089        0.1801085389       -3.6109261103
 H         -1.7618758416        0.9328808774       -3.6648520262
 H         -3.2567965677        0.5626904945       -3.5496148676
 O          0.3106353873        2.7905034021        0.6926873578
 H          1.1141754800        2.3446246478        0.9909024330
 H         -0.2956204184        2.8257503579        1.4548239351
 O          3.4369061238       -0.9774258347        3.8478153104
 H          2.9669815383       -1.8275410418        3.8055489301
 H          3.8616235879       -0.8806992983        2.9877828150
 O         -2.9541981947        2.6040680787       -1.6901522856
 H         -3.2118002318        2.9447203491       -0.8148438996
 H         -3.7359263631        2.1732217348       -2.0704281871
 O          1.0708295821       -1.0585005976        0.2160590770
 H          1.0966862005       -1.0890803372       -0.7420845904
 H          0.5615978804       -1.8422990960        0.4993600283
 O         -2.3425546033       -0.9316346978        0.2413268451
 H         -3.0838275501       -0.3838081818        0.5621553931
 H         -1.6884102249       -0.2787984794       -0.0916873113
 O         -0.7463372783       -3.0610966235        0.5642692154
 H         -1.4196894239       -2.3625021045        0.6363465242
 H         -0.9119740803       -3.5097667761       -0.2674046799
 O         -4.3492584353        0.6859484896        1.0046615363
 H         -4.2624170255        1.6386382586        0.8889600158
 H         -4.1799029630        0.5094810200        1.9499732592
 O         -3.3793383861       -0.1198947298        3.3997566688
 H         -3.4630176962       -1.0731843358        3.4575992031
 H         -2.4352992268        0.0730728633        3.4982607596
