  132
       -218.68808872
 H         -3.4235859317       -1.0490588643       -0.2447491706
 C         -2.8024217446       -0.3214169498        0.2776607364
 H         -3.3235022015        0.6348031952        0.3098930770
 C         -1.4826129542       -0.1272871929       -0.4566484422
 H         -1.6788867349        0.2994465916       -1.4359857258
 H         -0.9632376309       -1.0762343301       -0.5723162050
 O         -2.5732653416       -0.7040052683        1.6206658447
 H         -2.5036357357       -1.6834220077        1.6778568516
 N         -0.6485750554        0.7876875412        0.3342763961
 H         -0.3475820153        0.3042498850        1.2080944108
 H         -1.1840809121        1.6374038421        0.6184151115
 H          0.2123697727        1.0837706737       -0.1904566661
 O          1.1415012869       -2.3615162687        0.2988586476
 H          0.7787758545       -1.7479099410        0.9748236636
 H          1.9712568194       -2.6691722963        0.7159924275
 O          3.3607006610        0.0789763529        1.7711109709
 H          2.6126117918        0.7138971771        1.8827343162
 H          3.3321818948       -0.1312936343        0.8034304757
 O          2.1160176843        4.3018166774        0.8719182864
 H          1.2216941552        4.4506080506        0.4460299673
 H          2.3773621508        5.1492082687        1.2322388040
 O         -0.9132075170       -3.9697939025       -0.2504277524
 H         -0.6049915449       -4.8620130776       -0.4102542097
 H         -0.1183072487       -3.4155736192       -0.0650858776
 O         -0.4577379657        3.0297668077       -2.3391022222
 H         -0.5215943785        2.7102421033       -3.2607271321
 H          0.2656941140        2.4958758937       -1.9621789085
 O          2.3927225742        1.0069093708       -4.8648457690
 H          2.8973639286        1.5366022086       -4.2182574723
 H          2.7264741057        1.2433280083       -5.7314432649
 O         -2.3748658574       -3.0370304909       -2.4777165527
 H         -1.9056775348       -3.3791280809       -1.7038492866
 H         -3.2995629472       -2.9064893150       -2.2093693334
 O          1.4200889415        1.8367823389        1.8689254296
 H          1.6760221593        2.7333728566        1.6046451137
 H          0.8224857271        1.9155984272        2.6321505949
 O          1.3885633932        1.3779482047       -1.2728595113
 H          1.4415405091        0.4899815453       -1.6852068406
 H          2.2799821958        1.6188870349       -0.9715032634
 O          4.0116686433        2.5017435734       -3.2086942766
 H          4.2433748406        3.3839612314       -3.5008675314
 H          3.8735859866        2.5559395084       -2.2384743945
 O         -0.3387839894        1.5823027994       -4.6241901841
 H         -0.6960336433        0.7076893732       -4.4220728256
 H          0.6110036413        1.4349027203       -4.7542170915
 O          3.2889244763       -2.6384401588        1.8705978469
 H          3.3140689203       -1.6705155798        2.0132541277
 H          4.1408338439       -2.8502358372        1.4633739817
 O         -2.9780566508        2.3806773783       -1.5271021116
 H         -2.1138317204        2.7889271513       -1.7162808641
 H         -3.2048211611        1.9077841795       -2.3439114960
 O         -3.3611723869        0.7721946026       -3.7206010461
 H         -3.3064539923        1.1847284682       -4.5840942575
 H         -2.6153932630        0.1374828315       -3.6722290122
 O          5.5375529634       -2.8362734238        0.1787157469
 H          4.9624031208       -3.0191040751       -0.5892298810
 H          6.2242137070       -3.5041207013        0.1782035692
 O          3.4815602500       -0.5186277687       -0.7823789475
 H          4.4204815658       -0.2941661987       -0.9246740012
 H          3.4071935144       -1.4647223381       -0.9432302262
 O          3.6789441384       -3.2131324692       -1.8107296818
 H          3.3973584528       -4.0947977257       -2.0566109050
 H          3.6259488931       -2.6724857319       -2.6222217302
 O         -6.1063590087       -0.2800660452        1.2979752851
 H         -5.7642485902        0.4632563498        0.7621240591
 H         -7.0439400395       -0.3346672159        1.1089122587
 O         -5.4940218281       -0.0219616284       -2.1429440432
 H         -5.5408121251        0.6732816221       -1.4762794842
 H         -4.8295815919        0.2670784852       -2.7893814015
 O         -4.3211735616        2.8793764141        2.4262333864
 H         -4.6642161172        3.4908242555        3.0777775360
 H         -4.3218561925        1.9793233339        2.8422204005
 O         -5.1890376629        1.9518309279       -0.0312451363
 H         -5.0780945829        2.4632198949        0.7853242486
 H         -4.4405263786        2.2347535942       -0.5911275572
 O          3.3217498808       -1.3720886348       -3.7531892587
 H          2.8620728875       -0.8017088655       -4.3873112647
 H          4.1634400607       -0.8833817505       -3.5797870428
 O          0.2587515896       -0.8291946751        2.3129282180
 H         -0.4055275396       -1.3114135538        2.8156919484
 H          0.8618203749       -0.4333524525        2.9872679565
 O         -0.4649878712        2.0801528880        3.8214530592
 H         -0.0844454715        2.4320709684        4.6266058985
 H         -0.9535288239        1.2688269900        4.1018175752
 O          1.1081524070       -1.1168111868       -2.1777749581
 H          1.9071250370       -1.2767008392       -2.7146768135
 H          1.1942847159       -1.6302813067       -1.3564563607
 O          3.7095520436        2.6268462351       -0.5499710323
 H          4.4093891452        2.3313437647        0.0537114404
 H          3.1949337526        3.3092079512       -0.0786497952
 O          1.8670436335       -0.1154103476        4.2954301229
 H          2.7506456938        0.0865281147        3.9814087657
 H          1.8800665134       -1.0618155874        4.5525901510
 O          1.7511458667       -2.7933466465        4.2659692827
 H          2.2596557697       -2.9713811140        3.4618916436
 H          0.8173373862       -2.9154749939        4.0541244801
 O         -1.2365362592       -0.8858986654       -3.5826834301
 H         -1.6842220129       -1.7210472449       -3.3350764413
 H         -0.3825850836       -0.9299639740       -3.1173992701
 O         -5.0326573038       -2.8759771051        1.0298846231
 H         -5.3981083176       -2.0087885407        1.2639711726
 H         -5.0527398348       -2.9048251967        0.0571237291
 O         -0.2654069080        4.6368831876       -0.1086043939
 H         -0.3694779308        4.2693005396       -0.9998351649
 H         -0.8841207760        4.1471685042        0.4594033427
 O          5.4644715987        0.1243434010       -3.3127244546
 H          5.0858543408        1.0172432117       -3.3164589029
 H          5.9327855199        0.0274129528       -2.4727728671
 O          6.1575833437       -0.2119316807       -0.6362979652
 H          6.1843055802       -1.0803196239       -0.2064510608
 H          6.1565648831        0.4589719861        0.0655316295
 O         -2.5698073982       -3.3665087602        1.8278953105
 H         -2.0841784987       -3.7075232024        1.0564516978
 H         -3.5289916994       -3.3507629066        1.5942914324
 O         -1.1718353441       -2.6613498517        3.9845783377
 H         -1.7259067269       -3.0292422044        3.2636174622
 H         -1.3888032411       -3.1546751713        4.7773924220
 O         -1.7372090078        2.9670104286        1.5459962446
 H         -1.3017766019        2.7862071595        2.3962625471
 H         -2.6885857333        3.0314513732        1.7429126071
 O          5.4676591147        1.5805108128        1.3339579676
 H          4.7168958450        1.0072627923        1.6425604768
 H          5.8713549497        1.9740736273        2.1067791788
 O         -4.9793134257       -2.5626762233       -1.6872274530
 H         -5.5885130493       -3.0612810943       -2.2335236012
 H         -5.1954769802       -1.6073247750       -1.8399352626
 O         -1.8804013595        0.0134131363        4.6946565868
 H         -1.6508277839       -0.9073217112        4.5070243295
 H         -2.8113606370        0.1278130018        4.4657304891
 O         -4.3234625172        0.3786625500        3.3018507781
 H         -5.1740067432        0.0639452429        2.9656068765
 H         -3.6671138244       -0.0030242732        2.6753742939
