  459
       -779.20447531
 O          3.2490665014       -2.8316264994       -1.5164873895
 H          4.0092005909       -2.9419767725       -2.1257398242
 H          2.5984485153       -2.3542471278       -2.0661709300
 O         -2.7017421330        3.6239690033        5.1025386675
 H         -3.2560616899        3.5391468130        4.3159151682
 H         -1.9698257739        4.1998249210        4.8099116666
 O          4.4506297622       -2.0391536091        1.7941702565
 H          3.5528450809       -1.7898195617        1.4945212567
 H          4.3645119629       -2.9217404120        2.2026648886
 O         -3.1819356011       -3.0902122147        0.5018444455
 H         -3.2314426333       -2.7178148009        1.3935904943
 H         -4.0989230369       -3.0412227789        0.1680332655
 O          5.1192528137       -4.0309400387       -5.4761393549
 H          5.0432526841       -4.7889493933       -4.8654364377
 H          4.2549331092       -3.9628914717       -5.9012323419
 O          2.4092659229       -3.5630995323       -5.8293522030
 H          1.5790069733       -3.4573758218       -6.3015106331
 H          2.1989282386       -3.9792638728       -4.9609920620
 O          1.2226205908       -4.5234888163        1.9977939034
 H          1.5924124029       -3.7713958025        2.5066449700
 H          1.1638167059       -5.2684250282        2.6315850344
 O         -3.5733382962       -1.2717968102        5.5509851524
 H         -3.1196066338       -0.4570221880        5.8134935773
 H         -4.5297867444       -1.0898263016        5.5933512146
 O         -5.8209485994       -3.2369487053        0.1658636225
 H         -5.8631208490       -4.1709681448        0.4285525248
 H         -5.9425384829       -2.7648786487        1.0129810421
 O          0.7990469661        3.7498207410       -5.6042458269
 H          1.5538155400        3.1885746849       -5.3671285564
 H          0.3817197695        3.3224502728       -6.3681139932
 O         -0.6107049141       -3.1093926817        3.4858947165
 H         -0.3064016971       -2.4243227046        4.1123261231
 H         -0.7495287298       -3.9317676685        3.9934263199
 O         -0.0537021872       -1.0153024883        5.0288466873
 H         -0.1914396368       -0.5542470601        4.1710568629
 H          0.8407961592       -0.8097576592        5.3323589446
 O         -4.3650813943        2.2435630045        0.5164435265
 H         -3.6670213380        1.6354422889        0.2458842291
 H         -4.2340247017        3.0582717987       -0.0143862786
 O          0.3698051055        2.1314864556        3.8003201678
 H          1.1146872510        2.6973220450        3.5290574357
 H          0.4398871299        2.0259784075        4.7676759818
 O         -1.5307946792        2.8778577716       -0.3176151633
 H         -2.0972484106        2.7746752807       -1.1027813675
 H         -0.6833268321        3.2032251750       -0.6401485054
 O          2.9538000913        3.7649924608        0.4189735515
 H          2.1723229944        3.6464068969       -0.1320625228
 H          3.7007432138        3.3774903998       -0.0800191059
 O         -4.1015371208        0.4126352581       -6.5731645522
 H         -4.9343116284        0.2989492586       -6.1052270033
 H         -3.6847437437       -0.4693256891       -6.6499643132
 O          2.1469373509       -0.9920392859       -3.1122349450
 H          2.4061503131       -0.1215076998       -2.7650709393
 H          2.6609964654       -1.0695748040       -3.9466538027
 O          0.1311880445       -2.5842692280       -4.0917773841
 H          0.8097488673       -2.0092773909       -3.7059279236
 H         -0.7297495701       -2.2886860358       -3.7615301285
 O         -0.0983598660       -2.2005456763       -6.6626471559
 H         -1.0428655912       -2.0900167598       -6.8463987369
 H         -0.0272990038       -2.3849180026       -5.6896902457
 O         -0.0696114440       -6.4261004262       -4.0677028326
 H         -0.5531504872       -6.6073789546       -3.2376618587
 H         -0.6873475483       -5.9189272328       -4.6079043224
 O          2.6603678488        1.5739028851       -2.3317751017
 H          3.4634364301        1.7937404924       -1.8011715695
 H          2.8584540629        1.9183879978       -3.2323635606
 O          2.4356701050       -0.8815925323        6.3239065232
 H          3.2472147435       -1.0858956073        5.8250002520
 H          2.0946638568       -1.7506396199        6.5794581244
 O         -4.7596169502       -0.7170906129       -0.6581191234
 H         -5.5402754268       -0.5782819850       -0.1048273068
 H         -3.9640029660       -0.4280977614       -0.1639095985
 O         -5.7685759071        2.0819239792        4.7546960238
 H         -5.5838908508        2.5728348948        5.5553314091
 H         -5.2191755706        2.4955018907        4.0505259965
 O          2.0498177762       -1.6468778207        0.7509573313
 H          2.2740425376       -2.1252789712       -0.0547082830
 H          1.1866650226       -1.9788328673        1.0256046317
 O          3.2196237366        2.7700108178       -4.6025789961
 H          4.0858266027        2.5667233437       -4.9742799306
 H          3.2237698809        3.7278088526       -4.3823079489
 O          2.0458060099        0.0787460698        3.2575114397
 H          1.3561602904        0.7580127150        3.4021570620
 H          2.3624180745        0.2034518696        2.3390738128
 O          2.8143360065        3.6014524503        6.6614331267
 H          3.2285648361        3.8303803130        7.4921832867
 H          3.5411446897        3.5292148451        5.9968489173
 O         -2.2301625256       -1.2197038511       -3.9963132864
 H         -1.6398454463       -0.4369266039       -4.0518098274
 H         -3.0768684318       -0.8778820219       -3.6514446501
 O          7.2631565875       -0.9934356316       -1.8971301906
 H          6.7423723136       -1.6750491285       -1.4117307361
 H          8.2016043943       -1.1682620634       -1.6664109601
 O         -6.4482653611        0.6384787255       -4.8508095476
 H         -6.3073490777        1.5701327864       -5.1123909489
 H         -7.3050140599        0.6797603962       -4.3767640101
 O         -9.3486049344        3.7951700195        2.5401609410
 H         -9.0356206031        2.9534913303        2.9108116436
 H         -9.6897440074        3.5874490595        1.6603049944
 O          0.6894360722        1.8450621317        1.0730522402
 H          0.3368204514        1.6510479903        0.1925383962
 H          1.6389872709        1.6151482693        1.0427722960
 O          8.3989745652       -4.2776623529       -0.4271236428
 H          7.9436660018       -4.2149450511       -1.2919041285
 H          9.2171999358       -3.7908775549       -0.5406488002
 O          5.9285166551        2.0814863685       -5.1202449135
 H          5.8058850359        1.3440960116       -5.7726733467
 H          6.8633808924        1.9645246866       -4.8500442565
 O         -3.7921877730        4.4507512199       -5.1401303849
 H         -4.6871716779        4.1179948912       -5.2948357685
 H         -3.1979134237        3.7037838784       -5.3228072497
 O         -2.3636330793        2.1760898402       -5.6600091227
 H         -1.8070946543        1.7308722044       -4.9934285079
 H         -3.0379871481        1.5291231434       -5.9730272809
 O          3.2817314870       -1.0721951649       -5.4906630556
 H          3.0287686350       -1.9970599077       -5.7110902635
 H          2.5909325392       -0.5004545316       -5.8654656657
 O          5.2211164602        0.3024742697       -3.2202642999
 H          5.3448886844        0.9873273488       -3.9029571177
 H          6.1063852283        0.0660207779       -2.9141374690
 O         -6.8262472327       -2.2055397325       -4.6074189285
 H         -6.9142424182       -2.1465807941       -3.6387485324
 H         -6.7360934573       -1.2961957730       -4.9114723462
 O         -7.1119073781       -1.8002927887       -1.9016802672
 H         -6.8341264147       -0.8846995825       -1.7341886984
 H         -6.7078461388       -2.3365954186       -1.1959422923
 O          0.6625806740       -3.6996754931       -1.3812255443
 H          0.3720160489       -3.4717317715       -0.4831861702
 H         -0.1563254640       -3.6968000495       -1.8985792014
 O         -1.8102027065       -3.8775540349       -2.4915955833
 H         -2.6714252492       -3.4410763305       -2.3341874434
 H         -1.8034978502       -4.1308388266       -3.4309137341
 O          4.5170354042       -1.7705514444        4.7051138990
 H          4.6162175484       -0.8686167612        4.3373127852
 H          3.8072802360       -2.1964706245        4.1769285221
 O          3.2089279388        1.0006944172        1.0582278411
 H          3.5735045049        0.4074264379        0.3657042620
 H          3.9514578068        1.5474828456        1.3523843459
 O          2.2930897676        6.2721724812        0.9620115261
 H          2.0408451190        6.6422216062        0.1090871094
 H          2.8838929462        5.5226191293        0.7569273992
 O         -6.3693947011        5.7380868486       -1.9017286665
 H         -5.6187437251        6.0606792124       -2.4392610386
 H         -6.2294041418        6.1235443005       -1.0283475912
 O         -4.5192221671       -3.5150414119       -4.9500624235
 H         -4.2712572274       -3.1800335252       -4.0670937566
 H         -5.4435055661       -3.2105419326       -5.0341730254
 O          5.3155198459        2.5010182195        2.0120791351
 H          6.0149225435        2.7023410859        2.6641900616
 H          5.2739278461        3.3126402920        1.4704381015
 O          8.3106879829        1.2566578596       -4.2035995558
 H          8.6315022956        1.2675803352       -3.2897831994
 H          8.2589229666        0.3281531358       -4.4687474101
 O         -0.4969087934       -2.6955533083        0.8364625238
 H         -0.4845718373       -2.8249279514        1.7990752454
 H         -1.4061131124       -2.8663602431        0.5523641782
 O          1.2266320584       -6.9474681086       -0.8425561667
 H          1.8293958829       -6.2220578870       -0.5750984178
 H          1.5229352437       -7.2516711150       -1.7014420761
 O          5.4023011781       -5.3182931291       -0.7184210910
 H          5.9981713756       -5.7310776224       -0.0904350847
 H          4.4996336307       -5.3477633755       -0.3509531476
 O         -8.4047206762       -2.9711851001        1.1269320901
 H         -9.3302361702       -2.7505657129        1.2866231213
 H         -8.3612495063       -3.5237320025        0.3146351375
 O         -1.2137661987        6.3059811112       -2.3843684603
 H         -1.3369776035        6.1629758036       -1.4261191019
 H         -2.1133626524        6.4845823635       -2.7175865382
 O          5.7285338106       -0.2183129466       -6.3447082331
 H          6.3883538181       -0.7217339380       -5.8423794840
 H          4.8607127080       -0.5818592126       -6.0898932947
 O          0.9557548006        0.2109909725       -6.1521650825
 H          0.5692159742       -0.6458493221       -6.4481975724
 H          0.6088540881        0.8836668950       -6.7566929456
 O          4.7505097313        2.5555191030       -1.1094003055
 H          5.4656812154        2.0011998140       -0.7355404088
 H          5.1512797801        3.1293791387       -1.7931533650
 O         -7.9478546972        1.4799681689        3.1222887051
 H         -7.2060194277        1.7165255713        3.7031461955
 H         -8.1267363677        0.5321770254        3.2994382787
 O         -5.9306727266       -2.1263047188        2.6038382289
 H         -5.6684483032       -2.6432213402        3.3869618592
 H         -5.4572699691       -1.2779560509        2.6296820609
 O         -2.9941596779        2.5411690010       -2.5647261095
 H         -2.3255760340        2.9292101376       -3.1538364975
 H         -3.3221140446        1.7046845000       -2.9459651520
 O          3.0311296072       -5.3449712465        4.9159975030
 H          2.3494713261       -5.9372970974        4.5632214538
 H          3.5254969454       -5.0268178751        4.1429137221
 O          5.8183499734        4.0103960894       -3.0714623340
 H          5.8120463981        3.5009933930       -3.8922081260
 H          6.7546265959        4.1448042311       -2.8363086897
 O         -1.8866202297        2.9625129782        2.3888494508
 H         -1.7193361980        3.0109906008        1.4347279154
 H         -1.0369868696        2.7740835251        2.8214844472
 O         -1.4652634129       -5.3745769468        1.4178562901
 H         -2.0518144457       -5.1879781833        2.1539652558
 H         -0.6433513205       -4.8782225365        1.5547600258
 O          5.4609575118        5.6467665090        3.4192952889
 H          5.4798511744        5.4314027643        2.4660487053
 H          4.7456971059        6.3160069345        3.5043731206
 O         -4.2424817989       -2.7842846245       -2.3457554813
 H         -4.8602293606       -3.5037560006       -2.1221637370
 H         -4.4385390136       -2.0510520707       -1.7348394164
 O         -4.5390565948        3.5361543906        2.8717100591
 H         -4.3447543992        3.0262275436        2.0541922209
 H         -5.3716013739        4.0129371988        2.6861931673
 O          6.2924972494       -0.1613276698        2.0806760236
 H          5.5448558683       -0.7918208583        2.0945821059
 H          6.6597794769       -0.0706803445        2.9818336913
 O          2.8594387750       -5.0012573940        0.0689749247
 H          2.1723429642       -4.7985725809        0.7626129361
 H          2.8160254362       -4.2570644343       -0.5643002555
 O          9.5950520393        0.0681022501        2.5099348084
 H          9.2503417082       -0.7403045331        2.0969705281
 H          9.1045472509        0.1204007519        3.3481326860
 O         -0.1167420760       -7.7137811063        1.5614645843
 H         -0.7665259168       -6.9971077634        1.4199418920
 H          0.4526380752       -7.6837951437        0.7826255482
 O          4.6200251234       -5.6964764267       -3.3926847852
 H          3.6771056385       -5.4467769020       -3.3938442321
 H          4.9265576913       -5.5800108507       -2.4828029780
 O         -2.8493147636       -1.9728500989       -6.4085972830
 H         -3.5627242230       -2.6021742976       -6.2028968605
 H         -2.5618548951       -1.6755336603       -5.5042622955
 O         -5.3231129088        0.4651361612        2.3282685982
 H         -5.2222402534        1.1037264729        1.6076012280
 H         -4.4777833283        0.5295414572        2.8201900928
 O          0.9395881408        1.5766364505        6.3633996683
 H          1.5367238768        2.3161452864        6.5614403048
 H          1.4751278433        0.7758909171        6.4568708196
 O         -7.2894293220       -0.5513552118        0.6993757159
 H         -6.8389107769       -0.2403107693        1.4957874075
 H         -7.6015047853       -1.4652547120        0.8675767210
 O          4.3647238729       -0.4386204982       -0.7763647522
 H          4.5490206455       -0.0738546149       -1.6529766378
 H          4.0303551070       -1.3366303243       -0.9193610424
 O         -2.1317512194        1.1456090974        5.9156989599
 H         -2.3028485250        2.1051226817        5.7768707309
 H         -1.1913457904        1.0619641240        6.1075224316
 O         -1.3723990580       -5.1886091519        4.9771502446
 H         -1.4870442617       -4.5164348133        5.6803861762
 H         -2.2400587148       -5.2448569905        4.5346303050
 O         -5.5551050808        3.2055543233       -2.4555129846
 H         -5.8104642234        4.0628680633       -2.0703508484
 H         -4.5783596759        3.1352964694       -2.4087819654
 O         -6.6754347834        0.9813616912       -1.5687777134
 H         -6.8638150099        1.2509250265       -0.6530301161
 H         -6.1810955815        1.7462148081       -1.9312417314
 O         -3.8433891375        4.5677024665       -0.6591139082
 H         -4.4098249706        5.2171563872       -0.1919448157
 H         -2.9309586138        4.7738719305       -0.3625779750
 O         -0.6318745216       -0.2201118859        2.5531656739
 H         -1.5189129284        0.0847810345        2.8305389667
 H         -0.1977041552        0.5396420296        2.1346977984
 O         -0.4691133421        2.1891728075       -7.4743938452
 H         -0.8098483799        2.3532910715       -8.3521634249
 H         -1.2500061073        2.2045941400       -6.8570729808
 O         10.9852629715        0.7836311068        0.2181023395
 H         11.8234704185        1.2153927286        0.3792694442
 H         10.6026122814        0.5789520308        1.0888606729
 O          8.5633891089        2.3766381288        1.4533723486
 H          7.7796239637        2.0423557386        0.9923528819
 H          8.9709155762        1.5951337315        1.8693102164
 O          1.5309691153        6.1230321117       -1.8476895435
 H          0.6715116888        6.4977458756       -2.0833039360
 H          1.3429844393        5.1795809056       -1.6407005926
 O          5.0727274317       -2.4638873463       -3.3682701961
 H          5.0038667086       -1.5114623195       -3.5377056775
 H          5.0376359251       -2.9254943126       -4.2387770008
 O          8.2170668106        4.8799151888        0.2762306105
 H          8.5327566180        4.0598742288        0.6804126496
 H          8.3201358852        4.7758158174       -0.6798965522
 O         -8.2176587492       -4.3938588766       -1.1501088872
 H         -8.5142158259       -3.8623459626       -1.8918280868
 H         -7.3120198535       -4.6756547066       -1.3655957466
 O         -7.3033975745        2.3282384721        0.6806970575
 H         -8.1483301753        2.6171532176        0.3216762080
 H         -7.4980340096        1.9109119833        1.5509047779
 O         -5.6344839723       -5.0899924445       -1.9999547042
 H         -5.5703954830       -5.5848812965       -2.8166150119
 H         -4.9070972071       -5.4107775992       -1.4095007837
 O         -8.2527518052       -1.1484177855        3.5813687866
 H         -9.0894495626       -1.4032074004        3.1658235781
 H         -7.5454029191       -1.6475467350        3.1204958170
 O         -5.3006361058        6.3603814049        0.6979095020
 H         -5.9446988942        5.8353940688        1.2133578474
 H         -4.6051254619        6.5992965306        1.3248277042
 O          1.6997472853        5.3052536456        4.7543037271
 H          1.9944999862        4.6772029981        4.0615781583
 H          1.9552420539        4.8856360771        5.5868658231
 O         -0.6261035095        0.8733114433       -4.0836244325
 H          0.1100102586        0.6696969135       -4.6965215993
 H         -0.2764421481        1.0013992534       -3.1809017022
 O          4.3196963603       -4.6218233078        2.5194665631
 H          5.2673443808       -4.7768467847        2.3413047415
 H          3.8301209452       -4.9323150554        1.7452364370
 O          0.9608135947        3.5299400723       -1.5760615838
 H          1.5887631391        2.8459740503       -1.8846363602
 H          0.2849208287        3.5901958471       -2.2991511013
 O          8.1304029890       -1.8553784191        1.2076080848
 H          7.4458194921       -1.2085927192        1.4970870863
 H          7.6177699298       -2.5017787588        0.6871435749
 O          9.6940327571       -1.4816234828       -0.9161228042
 H          9.2339411481       -1.6268392036       -0.0606746357
 H         10.3114755505       -0.7591055515       -0.7642264498
 O         -9.7430317488        0.2906499359        0.1820606056
 H         -8.7925975766        0.1221486262        0.3962889342
 H         -9.8662057527       -0.2009013082       -0.6748179709
 O         -0.8113450188        3.8715766967       -3.4646544469
 H         -0.3221327224        3.8677848665       -4.3129659583
 H         -1.0020371507        4.8039720248       -3.2293971179
 O         -3.6257379395       -5.7379122779       -0.4139757904
 H         -3.2515275279       -4.9170451228       -0.0435946681
 H         -2.8582982867       -6.2105769603       -0.7861717347
 O          2.2370399578       -2.5744614267        3.5403283946
 H          1.8424921038       -2.8194177958        4.3951561395
 H          1.9908696257       -1.6470441049        3.3538695501
 O         -5.4067036926       -5.5682289372        1.5893671107
 H         -4.8623618296       -5.9831197966        0.9038367444
 H         -4.7707564845       -5.3008301599        2.2776490439
 O          7.2407524728       -4.0075159925       -2.8740999135
 H          6.9232244799       -4.8521919271       -3.1978932951
 H          6.4685407013       -3.4091845759       -2.9192905832
 O          5.9142762191        0.8237562768        6.2330798850
 H          5.5006699693        0.2183862279        6.8490413592
 H          5.2727673044        0.9446467957        5.5032928174
 O          6.7418596042        1.0327593671       -0.2145446344
 H          6.4069191020        0.6818362825        0.6379999894
 H          6.7687015743        0.2499320928       -0.8077036155
 O          7.6408479608       -0.2376594705        4.3973245486
 H          7.5058135615       -1.2005003545        4.4499529291
 H          7.1598134726        0.1740195475        5.1398238877
 O          5.5958082552        4.8787142070        0.8189379315
 H          6.5520853840        4.9668415304        0.6220694510
 H          5.1289235400        5.2685899471        0.0594749618
 O         -0.8850781890        5.3011558179        3.9339404975
 H         -0.0606031748        5.4914874372        4.4098325869
 H         -0.5817876214        4.9183754587        3.0881736872
 O          4.4060077037        0.8103873982        4.0442105187
 H          4.7562590791        1.3115972033        3.2939225774
 H          3.4515109663        0.6528083008        3.8536577389
 O         -7.5853261826       -4.7431685731        3.0803155995
 H         -6.9648401234       -5.2762229216        2.5621098775
 H         -7.9013916391       -4.0650883958        2.4551704602
 O          7.2829988771        3.3924301170        3.6300717053
 H          7.1178341814        4.3407878349        3.5880768707
 H          7.9360570965        3.1816019398        2.9403731344
 O         -6.1741147289       -0.5749622512        5.4195661634
 H         -6.9727143709       -0.8246549347        4.9386573064
 H         -6.0036006357        0.3503744412        5.1773604545
 O         -1.6190984220        5.7097820150        0.2393911192
 H         -2.1550885880        6.0094170289        0.9984617142
 H         -0.8848987178        5.2082088642        0.6534345686
 O          4.3629418290        5.7800357425       -1.4125934116
 H          3.4758835480        6.0578095359       -1.6586202615
 H          4.7525136779        5.3454328733       -2.1812842518
 O          4.7273069853        3.5589405324        4.8231117589
 H          4.9952476283        4.3986293603        4.3618091457
 H          5.5462026358        3.0821580010        4.9857837618
 O          9.0315870898        1.6802919356       -1.5402734894
 H          9.7837428449        1.4611089094       -0.9688481980
 H          8.2334556858        1.4886758848       -1.0147737114
 O          6.0335944172       -2.6982381416       -0.2941068843
 H          5.8164904804       -3.6150069204       -0.5276743306
 H          5.4050888291       -2.4041416735        0.3963542526
 O          2.7058893784        5.3607838410       -4.2157556106
 H          2.3029409454        5.7228760187       -3.4055289216
 H          1.9980489996        5.3003443803       -4.8659532255
 O          6.8641437672       -2.8759949914        4.1663439034
 H          7.0015348597       -3.5908209140        4.7868570937
 H          5.9417824839       -2.5549469984        4.3227302424
 O          3.2636777287        7.1582469904        3.4365514691
 H          2.9188099836        7.0264309637        2.5405427722
 H          2.6577454583        6.6703223981        4.0188338618
 O         -9.7050770011       -1.0188197995       -2.0742048603
 H         -9.5716177235       -0.3005484590       -2.7127914246
 H         -8.8244029766       -1.4368921612       -1.9938069499
 O         -6.3441586104        3.3297493496       -4.9539540189
 H         -7.1951729031        3.7683365252       -4.9635624570
 H         -6.0756763467        3.2897215678       -3.9990478351
 O          2.0109572843       -4.8483435345       -3.4830544880
 H          1.3027700660       -5.4761370934       -3.7464687243
 H          1.6442071267       -4.3588454271       -2.7269875492
 O         -1.3314108063       -6.3878750999       -1.6543166758
 H         -0.5063367682       -6.5105072528       -1.1545809626
 H         -1.4205350757       -5.4275731210       -1.8265422369
 O          7.5704125053       -1.4477550163       -4.5809134209
 H          7.7088972408       -2.3675050219       -4.8138911297
 H          7.4136414169       -1.4445456380       -3.6153394336
 O         -5.8551116247       -3.7192324001        4.7780075522
 H         -6.5933902623       -4.1500076425        4.2732609961
 H         -6.2437429412       -3.2027656203        5.4845613234
 O         -1.5540547766       -2.9241638930        6.4226779058
 H         -2.4272075210       -2.5284248184        6.2769809381
 H         -0.9419354739       -2.2341496408        6.1213318016
 O         -8.5383419875        3.8864091489       -2.5530786901
 H         -7.8913089127        4.5859256903       -2.3925700300
 H         -8.9358820132        3.6856415043       -1.6967059892
 O         -3.6471297996       -4.7056621103        3.5566247089
 H         -3.4448523656       -3.7619491223        3.3240422654
 H         -4.3693924554       -4.6230259644        4.1957502586
 O          6.9333999892       -4.6717924797        1.9061548430
 H          7.1560439735       -3.9481074543        2.5098496637
 H          7.5037047147       -4.5636086024        1.1257464763
 O         -2.9375272203        0.8102869091        3.3728688784
 H         -2.7133114409        0.8737388464        4.3205259896
 H         -2.6706461406        1.6802576289        2.9829225702
 O          0.8171524899       -6.5080961835        3.7340001878
 H          0.5090929239       -7.1262451534        3.0296955158
 H          0.0331013428       -6.2485166507        4.2379292463
 O         -3.0516594213       -2.1780324720        3.0876267731
 H         -3.2940921997       -1.7370486946        3.9286193806
 H         -2.0876172471       -2.3434951483        3.1659930919
 O         -3.1341285495        5.9336643106        2.4650689719
 H         -2.4083953682        5.9871651174        3.1055995868
 H         -3.4902837667        5.0346289897        2.5870834233
 O         -8.6126337532        1.1817340741       -3.3091646972
 H         -7.9500797681        1.0665548354       -2.5804239783
 H         -8.7750759887        2.1342704233       -3.3163621741
 O         -4.3088244661        0.2627698650       -3.1811044289
 H         -4.6202629668        0.0114234524       -2.2909527798
 H         -5.1010375364        0.3743497259       -3.7395319954
 O         -6.8259171844        4.5873242196        1.9757393809
 H         -7.7225832749        4.5903487537        2.3590840235
 H         -6.8409786553        3.8230113332        1.3554719303
 O         -2.0041993592       -4.6221796953       -5.1390807323
 H         -2.9605475195       -4.4636749380       -5.1778600273
 H         -1.6042981411       -4.0224900587       -5.7750895464
 O        -10.5457226563       -1.4804925669        2.0110748951
 H        -11.4668008428       -1.3954729081        2.2508167756
 H        -10.3473039490       -0.7689583506        1.3562623478
 O         -3.8557194558        5.9985447485       -2.9626509237
 H         -3.8066208599        5.4781105801       -3.7914063286
 H         -3.7689597464        5.3568063217       -2.2286950234
 O         -9.9196619468        2.8831084426       -0.1632721348
 H         -9.9386800420        1.8912944638       -0.0621263537
 H        -10.7897399864        3.1399435455       -0.4677598787
 O          8.4620673372        4.1221154115       -2.4133337664
 H          9.0300789004        4.3442975130       -3.1505599242
 H          8.7155004209        3.2135861739       -2.1264798125
 O          2.6317336206        3.3954348721        3.0909092232
 H          3.4625821086        3.2554554480        3.5755416117
 H          2.8518518473        3.4999643217        2.1472853774
 O          1.5083495375       -3.4715495957        6.0034801839
 H          0.7000925127       -3.8721211699        6.3276094134
 H          2.1203921214       -4.2046893195        5.7488128904
 O          0.3074389654        4.5055234630        1.5963297997
 H          1.0757728270        5.0922563167        1.4795511489
 H          0.5703000297        3.5783007101        1.4371289828
 O         -2.3597514949        0.2116941654        0.2751591856
 H         -1.8418455771       -0.2978732985        0.9120435604
 H         -1.7761768083        0.8858488927       -0.0934407499
 O          0.2032324500        0.5869102562       -1.3936006903
 H          1.1394748668        0.7424210758       -1.5825662450
 H          0.1135516730       -0.3427202686       -1.1688321783
 O         10.8685070300       -2.0665586457       -3.3938329970
 H         10.4808596606       -1.8792413761       -2.5308099789
 H         10.4165379335       -2.8426822472       -3.7267982527
