  129
       -218.89037511
 O          2.8251024601       -1.6142484050       -3.3377610249
 H          2.4926496400       -1.3769755414       -2.4427668751
 H          2.1858723915       -1.2061372168       -3.9494013196
 O          4.7690005254        0.2080354912       -2.9842937696
 H          4.0912125167       -0.4847265581       -3.1661188066
 H          5.4230904692        0.1408865234       -3.6795165233
 O          3.8219026538       -2.2886981241        3.1666782297
 H          3.8729343562       -2.2622877838        2.1953913814
 H          4.2259129763       -1.4631575254        3.4662005019
 O         -4.6809373297       -3.8401827164        1.0264978324
 H         -5.3604856800       -4.5130004666        0.9822389291
 H         -5.0974657335       -3.0063400741        0.7461246915
 O          4.0103784982        2.5560369933       -1.4644483242
 H          4.2197732181        1.8958592874       -2.1370125113
 H          3.6697082978        2.0379167284       -0.7104622830
 O          1.1614700169       -2.0264553577        3.3244541409
 H          2.0887498164       -2.3309754464        3.4364704645
 H          1.2715018653       -1.0623580432        3.2630865072
 O         -1.6218634021       -2.0419957018        3.0466029587
 H         -1.6880871062       -2.4455224326        2.1619731104
 H         -0.6931624742       -2.1012977696        3.3171378985
 O          6.5140175360        1.0314408906        1.6998360617
 H          6.4280167524        0.4030933301        0.9674477190
 H          6.3847178098        1.9063574265        1.2976327511
 O         -4.2130944476       -2.9050682571        3.6575216801
 H         -3.2830882367       -2.6341586240        3.6875153325
 H         -4.3237888090       -3.3737502514        2.8170764444
 O          2.5780533128       -4.5386722712       -0.2000991915
 H          1.8091683467       -4.3365790218        0.3897428621
 H          2.9528471672       -5.3582455338        0.1224124271
 O          2.0963651591        0.5416104322        2.9064969217
 H          2.9833503353        0.5135569355        3.3113787443
 H          1.8290345957        1.4842035031        2.8845546638
 O         -1.4136395980        1.4123303963       -2.3580942615
 H         -1.4753058462        0.5075935639       -2.7116560430
 H         -2.2465578486        1.8590167782       -2.5912917984
 O         -2.7687155684        0.4171017656        2.8027760939
 H         -2.2959834427       -0.4167045031        2.9870792055
 H         -2.1404025560        1.1443164982        2.9524114446
 O         -5.3162827123       -0.5771577345        2.8344723759
 H         -5.0702893426       -1.4088494473        3.2908044156
 H         -4.5156005317       -0.0304548584        2.8849797121
 O          1.3344986246        1.4822843790       -2.5394178225
 H          0.3805056066        1.6350321629       -2.4347727060
 H          1.4272400449        1.0783751091       -3.4097500243
 O         -2.4176859871        4.2543141003        1.2127281126
 H         -2.2265442094        5.0626964917        1.6878176399
 H         -1.9379353383        3.5292677302        1.7008392844
 O         -1.0317967662       -3.4375942548       -2.3609855153
 H         -1.1910266548       -3.5516569400       -1.4187138422
 H         -0.1105287487       -3.7303013276       -2.5351226375
 O         -4.4191494946        2.9552012008       -0.1961402097
 H         -3.8351298936        2.1525857541       -0.0489382254
 H         -3.9970156397        3.6232621786        0.3623218578
 O         -3.3649576043       -1.4351651777       -0.9611753517
 H         -3.5568183709       -1.4605342427       -1.9134512809
 H         -4.2379052671       -1.4472292691       -0.5005055457
 O          1.6391392988        3.2045137377        2.5473475807
 H          2.5835364229        3.3801285765        2.7134939776
 H          1.5500363109        3.3352319183        1.5843792539
 O         -1.4076942508       -1.0856190965       -3.5141719777
 H         -2.3382054430       -1.1106195480       -3.7849188962
 H         -1.2545054317       -1.9618646015       -3.0815628102
 O         -0.9948145577        2.4175819662        2.4475103140
 H         -0.6766966857        1.8848848463        1.6448519736
 H         -0.1841392853        2.8106867405        2.7954152893
 O          4.3257787406        3.1066545934        2.4070493013
 H          4.1285721070        2.3642015559        1.8021714371
 H          4.9296960885        3.6631236861        1.9090903858
 O          3.5814965094        1.0537927866        0.6978674796
 H          2.9812875559        0.6421645920        1.3454775829
 H          4.3077705718        0.4367890301        0.5098161479
 O         -6.4129462737        1.1833895935       -0.6857822648
 H         -5.7605145397        1.8576070614       -0.4047321198
 H         -7.2735904195        1.5134421170       -0.4267030098
 O          4.7397575219        0.3913173276        3.6081142871
 H          4.9091929308        1.0433813668        4.2889303973
 H          5.3884085767        0.6049055992        2.8924099633
 O          6.0356800754        3.3462125169        0.1470131430
 H          6.7628844130        3.6578307496       -0.3905700658
 H          5.3066688068        3.1178760083       -0.4745572605
 O          0.8604753792       -0.3043443574       -4.7207112241
 H          0.7315004590       -0.3819499797       -5.6655926886
 H          0.0206781549       -0.5979699023       -4.3012872104
 O          5.6368455003       -0.4673832560       -0.4303364460
 H          5.3871953300       -0.2178278857       -1.3357993827
 H          5.1283298706       -1.2665573680       -0.2073998928
 O          1.5005414770        3.5149363770       -0.1792702382
 H          2.1622701976        3.4076560220       -0.8708440655
 H          0.6810480074        3.8297719471       -0.6038419834
 O          1.5589749528       -4.0454763526       -2.7323999582
 H          1.9653402483       -4.2998372644       -1.8884853541
 H          2.0933957909       -3.3110473037       -3.0745351348
 O         -5.6536864460       -1.3156917122        0.3573903683
 H         -5.5466534338       -1.0193328333        1.3079252050
 H         -6.0404785806       -0.5442724663       -0.0846617219
 O         -3.5664386616        3.0635282274       -2.7014643497
 H         -3.0868912439        3.8828022760       -2.8406209986
 H         -3.9123970954        3.1038149882       -1.7734429081
 O         -5.4154445605        1.0667477219       -3.2840502249
 H         -5.8424903818        1.0543239154       -2.4105617708
 H         -4.7947519396        1.8104486829       -3.2605421650
 O          3.7138774309       -2.1464659749        0.3929111034
 H          3.0401214789       -1.5512815493        0.0224491701
 H          3.4400398568       -3.0440859749        0.1343055432
 O         -2.8975991335        0.9390895230        0.1706578242
 H         -3.0122890985        0.0991218886       -0.3091317838
 H         -2.8904538474        0.7295692090        1.1262325532
 O         -4.1344624002       -1.1981620393       -3.5925796851
 H         -4.6142587167       -0.3299567471       -3.5164943240
 H         -4.7258612478       -1.7968065135       -4.0477490867
 O         -2.0062281308       -3.1713487047        0.5220443825
 H         -2.7765663724       -3.7130761858        0.7429408399
 H         -2.3810474351       -2.4740169119       -0.0619357005
 O         -1.0123672637        4.0351316579       -1.1515709063
 H         -1.1623968752        3.1315046963       -1.4507120514
 H         -1.5310659210        4.1346191258       -0.3321744044
 O          0.5826825573       -3.8840042568        1.3771635486
 H          0.7952629547       -3.2289457801        2.0701652262
 H         -0.3178101175       -3.7079255593        1.0764250690
 O          1.7978540756       -0.6481753359       -0.9160193766
 H          1.1003471653       -0.5466521387       -0.2568046478
 H          1.7553054024        0.1868526439       -1.4319324333
 O         -0.0538558526        1.1846315673        0.2385076260
 H          0.5829035200        1.8629080011       -0.0485033478
 H         -0.7775318943        1.1566627325       -0.4061898369
 O          8.3885440523       -0.8376349924       -0.8722138971
 H          8.7908805502       -0.5308169268       -0.0580879183
 H          7.4304923896       -0.7917480507       -0.7319671376
