  99
       -167.94523954
 O         -4.8561462889        2.4055962657       -0.4992702958
 H         -5.0179239032        1.7049960401       -1.1499401588
 H         -3.9532397912        2.7188513725       -0.6956028115
 O          2.8795498587       -0.8497972380       -2.6935453105
 H          2.3404027053       -1.3261580838       -3.3543002253
 H          3.5779188735       -1.4658005772       -2.4196589931
 O          1.2146801098        1.3321270725       -2.5503268473
 H          1.6119682274        2.1108498628       -2.1344885323
 H          1.9645750943        0.7686403855       -2.7810398103
 O          2.7347703867        1.6199936245        3.0296621583
 H          2.7062223603        1.8381034465        3.9626101049
 H          3.6843703453        1.6138224070        2.7734521128
 O         -2.2447235454        1.8963410484        2.4243385287
 H         -1.7820600519        2.6680534344        2.0535651766
 H         -3.1966780283        2.1031690616        2.4204511163
 O          6.8514546893       -0.4812016275       -0.5015987144
 H          6.1160320150        0.1324348314       -0.6619814940
 H          7.5954778548       -0.1756728866       -1.0202180856
 O          1.8003169962        3.5263613201        1.2330051250
 H          2.0378058233        2.8826462281        1.9211189984
 H          0.8312372308        3.5917784296        1.2137603045
 O         -1.9489384474       -1.2971863822       -1.8063535570
 H         -2.8370929798       -1.6610088630       -1.9464689719
 H         -2.0459515752       -0.6570953022       -1.0761361418
 O          2.8453071616        3.0439429799       -1.1244692419
 H          3.1977593715        3.8603293615       -1.4799720604
 H          2.4490888433        3.2703641153       -0.2439314249
 O         -2.4616398082        0.2249589984        0.3351409975
 H         -3.1011754361       -0.4677789681        0.5965101334
 H         -2.3141264950        0.7591323297        1.1441678915
 O         -1.7907852206       -3.4291023233        1.6647932473
 H         -1.9266447025       -4.3506303821        1.8884457190
 H         -1.3088537921       -3.0295050035        2.4587640231
 O         -4.5653139875       -2.1125795031       -1.5719690006
 H         -5.0501357518       -2.9144559343       -1.7707795150
 H         -4.4486027854       -2.0815564990       -0.5978648277
 O         -0.6633345869       -0.1084925992       -3.8592618283
 H         -0.0470749894        0.5249665795       -3.4458139282
 H         -1.1289782949       -0.5539513521       -3.1247395825
 O          4.1436161729       -2.9952722001       -1.5672811340
 H          4.8212838633       -3.6458452956       -1.7510252474
 H          3.2738520870       -3.4273740194       -1.7501479804
 O         -0.5905974210       -2.3794274058        3.6819294111
 H          0.2308642441       -1.9334900385        3.4279950296
 H         -1.1959270583       -1.6714313053        3.9825653214
 O          1.7160154468       -3.8528796419       -2.2156184666
 H          1.0032049938       -3.7408430856       -1.5688657952
 H          1.4283279883       -3.3843166372       -3.0127361667
 O         -2.1817555775        2.5834293724       -1.0281743033
 H         -2.2317568584        2.4599556548       -2.0045093484
 H         -2.2366032715        1.6891552701       -0.6504197591
 O          6.1986069311       -0.7957602007        2.1556904810
 H          5.3842994347       -1.2857418800        1.9594219093
 H          6.6831346612       -0.7894084650        1.3117671735
 O         -0.2754641096       -2.9363010057       -0.5267693013
 H         -0.9203595872       -2.4624050905       -1.0919239980
 H         -0.7652581272       -3.1948116626        0.2787672880
 O         -2.6681309648        1.8117133665       -3.5053076337
 H         -3.4744235090        1.3139994040       -3.3086426811
 H         -2.0309588664        1.1893161005       -3.8898339306
 O         -4.9634087661       -0.4871856034        3.0901165510
 H         -5.7289192784       -0.5916405626        3.6562214742
 H         -4.9988568982        0.4204896392        2.7195584991
 O          3.9735322480       -1.4056925993        0.6418549424
 H          4.2385542062       -0.5355602586        0.2807497210
 H          4.2212037510       -2.0552037507       -0.0393560606
 O         -4.9637542350        0.4413736569       -2.5012061742
 H         -4.8685890679       -0.4765001458       -2.1887543773
 H         -5.7349453069        0.4703078299       -3.0692722682
 O         -0.9416757416        3.8115320687        0.9642329374
 H         -1.1445547414        4.7480686634        0.9401690500
 H         -1.2989510963        3.4293374781        0.1298576226
 O          5.3132027898        1.6370610317        2.3086684523
 H          5.9644422734        2.2002168078        2.7278974833
 H          5.6823345470        0.7022767797        2.3399993797
 O         -3.9411174381       -1.9211841806        1.0227789337
 H         -3.2086777186       -2.5033327282        1.3161954331
 H         -4.3808010978       -1.5787487787        1.8199794906
 O         -2.3248049238       -0.3509382126        4.0797712827
 H         -2.1171598820        0.4910861630        3.6534204287
 H         -3.2548228601       -0.5229638911        3.8770054323
 O          4.5836976117        1.0978701083       -0.2845754327
 H          3.9850699423        1.7402891771       -0.7074322901
 H          4.8330854991        1.4824562191        0.5732589099
 O          1.0750299021       -2.0671879201       -4.3134252098
 H          1.1819715898       -2.2439225902       -5.2484096413
 H          0.3777778150       -1.3667175506       -4.2370571138
 O         -4.9566132848        2.0282065556        2.0755399486
 H         -4.9523512991        2.1159875987        1.0803865961
 H         -5.5787802704        2.6842004602        2.3921990129
 O          1.2816757179       -1.2087099220        0.7372750889
 H          2.2193065862       -1.3444179165        0.5147348728
 H          0.7546291526       -1.8493011379        0.2271937029
 O          0.1679396328        1.2008961464        0.0346057114
 H          0.5566462364        0.4210751466        0.4568248814
 H          0.4546955978        1.1394101490       -0.8837196297
 O          1.7392248543       -1.0122804553        3.3180804778
 H          1.6081077790       -1.1862896682        2.3632219000
 H          2.0207871097       -0.0886333068        3.3091607240
