  189
       -320.70758609
 O          4.9026206800       -2.8412876362       -0.7784638971
 H          3.9433499280       -2.7623805352       -0.9348959834
 H          5.1548416448       -2.1307837296       -0.1455466172
 O          1.9271014409       -0.8236029369        0.3835371026
 H          1.2006806773       -0.3644783090        0.8466601627
 H          2.3692263650       -1.3281558022        1.0911299244
 O          1.4924829008        2.4158108525        0.3068581265
 H          2.0919315167        2.4590688805       -0.4479235696
 H          1.0803544348        3.2965591799        0.3719786698
 O          2.6103675016       -2.1422142313        2.6010967662
 H          3.5249132709       -2.4523507183        2.8345989940
 H          2.3395568583       -1.4641566027        3.2556795265
 O          4.1970387881        4.3225881356       -0.0319657825
 H          3.5485874198        4.4175440302        0.6896626688
 H          3.8544125501        3.6346320133       -0.6394382796
 O          6.2324913418       -1.9233368646       -3.0550182020
 H          5.8155383418       -2.3549391468       -2.2880612369
 H          5.7292177011       -2.1827595561       -3.8367627328
 O          0.7382932030       -3.9089992170        2.5635426978
 H          1.4746322580       -3.2245948685        2.5745236749
 H          0.6994548657       -4.2771947656        3.4471347389
 O          3.8691635492        0.7324402282        1.6767998301
 H          3.3734779569        0.5628081105        0.8619355376
 H          4.5142369553        1.4531707688        1.4950573149
 O         -0.9972623417       -5.1409060638        0.5766391614
 H         -0.4198522843       -4.8164512616        1.2778260484
 H         -0.4260486264       -5.3304091914       -0.1790125441
 O         -0.6816536909       -3.5119245632       -2.6070259224
 H         -0.5795168932       -2.9801768480       -1.7918358333
 H         -0.2097730472       -4.3321429969       -2.4373914662
 O          0.2210822943        0.6703027141        1.8463904740
 H          0.7860642908        1.4037161342        1.5446560927
 H         -0.6849155703        0.9403429724        1.5950522488
 O         -1.3291160699       -0.4092825959        4.1762019210
 H         -1.3452346940        0.5584105217        4.0110772048
 H         -0.4407524951       -0.5768711609        4.5212932462
 O         -5.8655185077       -2.2945821677        3.5571084122
 H         -6.5552959173       -1.5962646430        3.4629715672
 H         -6.2312796708       -2.9638273989        4.1368549450
 O         -1.6054691465        2.8576836041       -3.6573916263
 H         -2.2210594874        2.7004501221       -2.9007489626
 H         -1.9391456795        3.6229390933       -4.1255295039
 O         -1.2106222952       -1.9620181083        1.9723953530
 H         -1.2788479391       -1.3292599995        2.7168102083
 H         -0.5846298352       -2.6498080687        2.2475697265
 O          4.3778759038       -2.5914759732       -5.1107939948
 H          3.6195998355       -2.1943626713       -5.6117700158
 H          4.6425367420       -3.3687478718       -5.6021507506
 O         -4.0611859526       -0.3519657115        4.3433886053
 H         -4.5590272145       -1.1682430433        4.1812191632
 H         -3.1273236979       -0.5828109114        4.4622217185
 O          1.1447624547        2.6085683870       -3.3209871353
 H          0.2090756877        2.7647870598       -3.5232071709
 H          1.4519101550        3.4062233990       -2.8435630297
 O         -5.6180557929       -2.9585299938        0.8886580193
 H         -4.7393156653       -3.3627538567        0.7554130666
 H         -5.6799734575       -2.8032914495        1.8483118687
 O         -4.1874119897        0.8922418414        1.9921683750
 H         -4.2953019449        0.2427106267        1.2499652223
 H         -4.0842487977        0.3861754655        2.8235081195
 O          5.7606719155       -1.1218571344        1.1351277572
 H          6.4769127305       -0.5324000143        0.8567488581
 H          5.0241791970       -0.5213503526        1.3810512118
 O          1.4195546693       -0.2365849890        4.0653776869
 H          0.9512151005        0.0672534265        3.2573384455
 H          1.9487768125        0.5371847494        4.3063332485
 O          0.4771092555        4.9093303657        0.5859897033
 H         -0.3635511371        4.7850370505        1.0551692439
 H          1.1482122699        5.0802144119        1.2647006661
 O          4.9084342112       -4.8661226595        0.9036855875
 H          4.9651445656       -4.1485857072        0.2179480940
 H          5.5933513712       -5.5026790545        0.7001204326
 O         -3.8865070988       -0.1946917609       -2.9140039074
 H         -3.7223759607       -1.0697193297       -2.5130231661
 H         -4.8298181166       -0.1968486960       -3.1445737051
 O          1.0595913987       -5.4173932942       -1.3498536751
 H          1.5662900800       -5.5512016351       -0.4973392320
 H          1.2754167600       -6.1711369654       -1.8995384926
 O          4.9769683974        3.6627362283        3.8056350530
 H          5.3215530240        3.3131561786        2.9617729198
 H          5.7347874757        3.8104808537        4.3705691463
 O          2.6243323341        4.5291677841        2.2481705696
 H          2.4529967265        3.6458563780        2.6401370913
 H          3.3095151879        4.9108721566        2.8032581471
 O          1.7508866191        4.8223470505       -1.8827719917
 H          1.1698768013        4.9736318322       -1.1216060575
 H          2.6360339345        5.0652688946       -1.5965263347
 O         -3.1856187180        2.1184959275       -1.6332021535
 H         -2.7152527898        1.9277648945       -0.7932191500
 H         -3.4910711759        1.2598027067       -1.9898749347
 O         -6.7046078410        0.6782870947       -0.7692085444
 H         -6.7964126246        0.4278889526       -1.7029911740
 H         -7.2733845933        0.0443758970       -0.2761549456
 O          0.3719431267       -1.4035713950       -4.0539803252
 H          0.0073872203       -2.2382485398       -3.7080149862
 H         -0.3945833050       -0.8773386621       -4.3750376683
 O         -1.7204977706        0.1756480820       -4.5484633601
 H         -2.5603519418       -0.0124075408       -4.0921724169
 H         -1.5930576970        1.1304031155       -4.4622980146
 O         -5.3228958234        2.9821293148       -0.1553492204
 H         -5.8997922801        2.2275235983       -0.3522601406
 H         -4.5629311215        2.8640603719       -0.7519795045
 O          2.6758657592        2.1620892504        3.5948331868
 H          3.0436221024        1.5930090846        2.8823370446
 H          3.4490463218        2.5911336728        3.9893015642
 O         -4.4754293188       -0.6434671201       -0.0800472659
 H         -4.8670077560       -1.4891418447        0.1956525090
 H         -5.2145305510       -0.1240858951       -0.4616720867
 O          5.6802378800        2.6483902053        1.3623193361
 H          6.4062224802        2.1967957835        0.9056234195
 H          5.2994817878        3.3349139341        0.7602669975
 O         -1.7022413538        4.0974560985        2.0326538626
 H         -1.4501046806        3.5654710937        2.8110216312
 H         -2.6670691613        4.2222607473        2.1003781785
 O         -6.5935401441       -0.6103117975       -3.1598720707
 H         -6.4940436015       -1.5066678588       -2.7493365937
 H         -7.1869518322       -0.7169297870       -3.9028230360
 O         -7.7344527470       -0.4158678442        3.2187486788
 H         -8.3959885799       -0.1952681084        3.8746985612
 H         -7.3236164778        0.4508019408        2.9347953863
 O          3.3963244904        2.3643455939       -1.6812481773
 H          3.7524755109        1.4924605761       -1.3687215798
 H          3.8912024706        2.5535816964       -2.4915062728
 O          5.0065266913        2.2230731173       -3.9396286400
 H          5.3401087376        2.8614365407       -4.5690542754
 H          4.2610040754        1.7433335541       -4.3824456554
 O         -3.0030266626       -3.3950498970        0.4977192597
 H         -2.5294621111       -2.7413422746        1.0418610293
 H         -2.4018157862       -4.1663372725        0.4731834221
 O          2.2290534584       -1.4211294339       -6.1162318868
 H          1.5295933954       -1.5237240626       -5.4453738871
 H          2.4281306963       -0.4767202941       -6.1269605012
 O          7.4718864960        0.9047894582        0.1586077205
 H          7.2460660274        0.8520217303       -0.7929147785
 H          8.4274340898        0.8953001366        0.2143153341
 O          2.1973780590       -2.8799948027       -1.3335064361
 H          1.7533436365       -2.3012638968       -0.6867662939
 H          1.7318303901       -3.7273790101       -1.3659955122
 O         -4.4181955294        3.9235107312        2.1692950313
 H         -5.0093806127        4.6556296311        2.3452508089
 H         -4.7399785523        3.5117469635        1.3313734821
 O          6.6026315853        0.6120209224       -2.3543634489
 H          6.1633370009        1.1958329796       -2.9958116106
 H          6.6106624227       -0.2931481476       -2.7365903185
 O          2.8174447885        1.0119722868       -4.7720971773
 H          2.1690724886        1.6388239795       -4.4041050948
 H          2.8407251934        0.2484513892       -4.1683530896
 O         -2.0103045310        1.7568703013        0.7878984683
 H         -1.8352967188        2.6746741821        1.0813229411
 H         -2.8134625690        1.4842312862        1.2859137941
 O          5.0400648814       -3.0143533509        2.9603672075
 H          5.0511575319       -3.8078276772        2.4012551695
 H          5.5158872251       -2.3372443268        2.4487505449
 O          4.3274445192        0.0396531511       -1.0477634095
 H          3.9180723953       -0.4786048017       -1.7681926674
 H          5.2436249071        0.2003465976       -1.3464338357
 O         -3.9124438218        2.5271253961        4.5248680464
 H         -4.2436449550        2.9158948338        3.6951910897
 H         -4.2566550318        1.6271916218        4.5765271718
 O         -7.9133770748       -1.2616209719        0.5929716417
 H         -7.2788461029       -1.9882845948        0.5941453442
 H         -8.0337148423       -1.0090241930        1.5212319875
 O         -3.3645087574       -2.7828955901       -2.1012562540
 H         -2.6058511403       -3.1943931985       -2.5356519854
 H         -3.2329800330       -2.9307966763       -1.1399749686
 O         -1.3694122303        2.3064452391        4.0716179285
 H         -2.3392762868        2.4043170317        4.3034519741
 H         -0.8700511710        2.6115594139        4.8293999832
 O          2.2907859016       -5.6101317593        0.9229378168
 H          1.8299415176       -5.0384947953        1.5554760811
 H          3.2363357562       -5.3715821864        0.9575379988
 O          3.1369814530       -1.1701297402       -3.1130393221
 H          2.6574470304       -1.8668952543       -2.6243569179
 H          3.6946073091       -1.6464013982       -3.7443597625
 O         -6.6556052943        1.7984807144        2.3779130747
 H         -7.0032831793        2.1156626290        1.5419234538
 H         -5.7107319874        1.5696068338        2.2077745040
 O         -6.0768399980       -2.9548006916       -2.0426350907
 H         -6.2059092384       -3.1063535147       -1.1012288022
 H         -5.1157787002       -3.0169714188       -2.1915406419
 O         -0.4286638953       -1.8386937125       -0.6411950806
 H         -0.4168500326       -0.9369164427       -1.0241367748
 H         -0.7717388532       -1.7331801045        0.2537752208
 O         -1.9637830233        5.1998572936       -0.9363630801
 H         -1.0420221853        5.3522449131       -0.7159737829
 H         -2.0674413489        4.2474687438       -1.0111413858
 O         -0.2966188562        0.7368430246       -1.4554449693
 H          0.3537803905        1.1787266728       -0.8973930292
 H          0.0580792602        0.7505771193       -2.3490508731
