91
 energy: -147.740481507956 gnorm: 0.000273615147 xtb: 6.5.1 (579679a)
C            0.53032288638572        0.02200529231731        0.68215088141818
C           -1.83824386873379        0.55222857948987        0.55666875649203
C           -2.04248482187386        1.38700281220262       -0.69799528042087
C            1.07426537388292        0.98269501462246       -0.29086701251399
H            1.09949438026524       -0.91815400400310        0.68287590680000
H           -2.74786912101474       -0.00338720837020        0.79076055261558
H           -2.42673671703869        0.77380969548637       -1.50589028611869
H            1.16423069115498        0.72537454866034       -1.32792145585668
H            0.55739886916452        0.45958563131112        1.68411454199878
H           -1.58812353938082        1.19684688809144        1.40282269455212
H           -2.76390862210232        2.17222534336150       -0.49431730272610
H           -1.10237500243140        1.83978380944578       -1.00061208167774
O           -0.81829526986947       -0.43456610941281        0.41402777045297
N            1.72108866900035        2.13287959591119        0.15949277921452
H            2.44724406573124        2.43777999096038       -0.47942340800350
H            2.07967020453756        2.03096045107204        1.11082545711340
O            0.83706926965261       -4.78379511678786       -0.08183880182112
H           -0.13406274046283       -4.63263890558030        0.06872067706452
H            0.94128697023057       -5.72899758766199       -0.19028697353905
O           -4.32268866513250       -1.23760041999340        1.88463400948140
H           -5.18518166647163       -1.34961524710445        2.28524215056157
H           -3.68251683847041       -1.19666444826613        2.63862044721406
O           -0.43973217156597       -1.36808828702312       -2.14305230161796
H           -0.62576310915297       -0.96582138543636       -1.27294366541999
H           -1.31156158631305       -1.73321136657077       -2.45515669110029
O           -2.84725078401609       -2.08317308287431       -2.82221562223047
H           -3.22980122424082       -1.22458358942476       -3.09058367488173
H           -3.23775531696463       -2.29739055085338       -1.96017218962627
O           -1.63856667994432        2.00863538888459       -4.03451158763242
H           -0.85391930270407        1.43837338923141       -4.06862848339137
H           -1.42800523350234        2.69412048842227       -3.37886273921213
O            1.80759457332001       -2.76015166147182       -1.66615997250159
H            1.51997928261821       -3.57006369103908       -1.20997287708037
H            0.97681344856084       -2.27408734974443       -1.85422463175561
O           -0.84218942560017       -2.48500673475879        2.28013749773027
H           -0.91832977252069       -1.77196461517788        1.62020504632565
H            0.10368083002971       -2.72853066122209        2.30253998943672
O            4.44319401316104        0.71539789555774        0.64992276929958
H            4.05529185154219        1.09248578239272        1.45044830670757
H            4.04644399751628       -0.16442559782579        0.56223390928695
O            1.14864483410210        3.35299923492599        4.13266333446775
H            1.55202855079149        4.21954459990968        4.07329358599768
H            0.34776634693289        3.38020557415877        3.57422847008060
O           -1.13865220741756        3.24265814480479        2.60649577602942
H           -0.78556532411812        3.57751707399104        1.73350152428085
H           -1.89014386937451        3.79591858440630        2.82066540622716
O           -3.80573394489649       -2.76676483382616       -0.28781799908483
H           -3.92192927408761       -2.16229283046875        0.47762587822866
H           -4.60435255213384       -3.29387141558077       -0.33686259340817
O            3.43259571116616       -1.88609911439190        0.24089725808054
H            2.85098405945785       -2.11376616075489       -0.52610270056253
H            4.28719777481108       -2.27774195339604        0.05387383868589
O           -1.68165108231744       -4.37201087841672        0.54692009530775
H           -1.48902415863090       -3.80191507571503        1.31868510152260
H           -2.35413204388022       -3.88291238749287        0.04748333588252
O            1.76863527732411       -3.16476956399819        1.98770053620426
H            1.52201057249212       -3.87785362175048        1.37402615013789
H            2.43741478049128       -2.64526645818648        1.50236002681912
O           -0.06865001399983        4.14926332246820        0.41181615898270
H           -0.46415998239394        4.14820227143581       -0.47478750777833
H            0.65981125241692        3.48521535962292        0.34224456753620
O           -2.58532279711488       -1.18480808217682        3.89934360709088
H           -2.04701689296702       -0.38980253082563        4.02797202051294
H           -1.97191228883235       -1.83412429050184        3.51339410883443
O            3.85683836424810        1.63479263769870       -1.87683283567671
H            3.77389611156206        0.79173760979067       -2.35420940916331
H            4.21413843417105        1.39446067387397       -1.00175694763182
O            1.71263242566231       -0.84284562074594        3.78225419032592
H            1.77897496423057       -1.71268159866876        3.37405541487734
H            0.77595180492067       -0.61042015334984        3.81803540361221
O            1.70908677890740        2.70803008347481       -3.19092766863284
H            2.53082987926249        2.47234459683198       -2.72162219561685
H            1.40819653533822        1.89320328089817       -3.61005777090204
O            2.74385252551035        1.50417251862497        2.79435158829525
H            2.30409361451516        2.14907662480614        3.37263889709364
H            2.51705026702879        0.63136724105448        3.16471743040600
O           -0.49077989796644        3.90407575209923       -2.32630878929446
H            0.37226297322735        3.47996074723496       -2.56207012997951
H           -0.48630401500468        4.75226123396295       -2.77196313246911
O           -0.63581848171549        0.84553850188072        3.99697301893381
H           -0.87922379144687        1.60527119426921        3.44447622230684
H           -0.10373681280479        1.21228894351612        4.70818534202539
O           -3.71685486565166        0.39654420430063       -3.53325272271485
H           -2.97500680340713        1.01947163545199       -3.71474013086334
H           -4.33345225185773        0.50227692174031       -4.25738803142029
O            0.50748690751790        0.18370547272478       -4.02278588322194
H            0.12454174772471       -0.37551457969803       -3.29066507026919
H            0.34228132537682       -0.29400561539330       -4.83714466479596
O            3.08985844907445       -0.70140102003265       -3.18448784453026
H            2.27615491464290       -0.34826373135947       -3.57230520399900
H            2.83229588637549       -1.51383262615813       -2.73294322061572
