  181
       -305.71464709
 H          0.5032832367       -0.7421517333       -0.8991235294
 O          2.4789509496       -0.9076749212        0.6164970701
 H          1.7869285984       -1.5083598427        0.9350413175
 H          2.4542342895       -0.1126884345        1.1809852978
 O          1.3778177539       -1.5820010096       -1.6738460093
 H          0.9843774202       -1.9630357601       -2.4841828123
 H          1.7709958002       -2.3263105999       -1.1694531426
 O          1.4097023169       -5.4845703737        3.4837830047
 H          1.7886027744       -6.2268197772        3.9546429802
 H          1.1693909003       -4.8105238763        4.1516657486
 O         -0.3660391119        0.1404793211        5.0880881135
 H          0.5537122264        0.4587577673        5.0340036282
 H         -0.8854284595        0.8675503177        4.7092469775
 O         -0.5952837593        4.4934011019       -1.2477597852
 H         -0.0682023976        4.8211057984       -2.0320398327
 H         -0.2706713564        4.9653700120       -0.4776287852
 O          0.4256665750       -4.8941754492       -1.7087604951
 H          0.1803494380       -5.5535864119       -1.0521445543
 H          1.2765064786       -4.5400268478       -1.3739455346
 O          4.5545875976        2.7175694223        1.0063880696
 H          5.3044573213        3.2294923738        1.3113098095
 H          4.7766141010        2.4254629138        0.0712893621
 O         -3.3844508239        0.7206013218        2.9113857774
 H         -2.8908819630        1.1480833889        2.1693574546
 H         -3.2261373402        1.2712656773        3.6782371820
 O          3.0031108765       -3.6419824430        2.1109925152
 H          2.5494580203       -4.3933686052        2.5185415060
 H          2.5823494983       -2.8409913851        2.4825787954
 O         -5.7262762973        1.9810737349       -0.4536356823
 H         -5.6186689564        1.4908974505       -1.2762277333
 H         -5.7481814980        1.3197750154        0.2606631257
 O          3.2219454314        5.2356361617       -2.5385175836
 H          3.0202325870        4.9322601766       -1.6334327246
 H          3.5542058975        4.4638685134       -3.0079495628
 O         -5.5921048673        0.1461847539        1.5634611825
 H         -4.8105238349        0.3523137785        2.1266616883
 H         -6.3563794525        0.1157364139        2.1390422082
 O          3.1293417027       -2.8813683156       -4.1089351792
 H          3.7352958361       -3.1701281458       -3.4162288256
 H          3.2971692586       -1.9353036414       -4.2335197357
 O          4.9198181762       -1.9574068599        0.9309881679
 H          4.0426246775       -1.5755567970        0.7009406931
 H          4.7097506041       -2.7104348834        1.4922121555
 O         -3.8638089231       -1.6489333731       -3.7046177448
 H         -2.9515978140       -1.3386180511       -3.5189345446
 H         -4.0171925446       -2.3288329248       -3.0266754317
 O          2.3554972819        1.3752046165        1.9936428449
 H          3.1225004917        1.8900290096        1.7075213793
 H          1.5660290074        1.7623261568        1.5456529490
 O          0.7559586259       -3.4731378156        5.1692097296
 H          0.5940705484       -3.4551481340        6.1122191360
 H         -0.0300144515       -3.0531358785        4.7319721012
 O          1.0200367167        3.1912142845       -5.1543033879
 H          0.2271441491        2.6175391349       -5.1846943071
 H          1.1330561058        3.5490952621       -6.0353800433
 O          3.0512269197       -0.0879334472       -4.4559909826
 H          3.0151516457       -0.1250124548       -5.4120472538
 H          2.1045602612       -0.0156850262       -4.1336559577
 O         -0.2493465370       -0.1902395170       -0.4140846814
 H         -0.0355256981        0.0039525956        0.5485280168
 H         -0.4467329497        0.6669842033       -0.9263023824
 O          3.9346552577       -0.4140126200       -1.7419970101
 H          3.5551620388       -0.3187864370       -2.6232678080
 H          3.1791306012       -0.4452556120       -1.1250896576
 O         -5.0129412146       -3.8629163703        2.4642125041
 H         -5.3963152146       -3.3577909944        1.7101501575
 H         -4.2656990258       -4.3482238783        2.0907495105
 O         -3.0758249131        2.0910337635       -3.2771351577
 H         -3.8846146213        1.5742745482       -3.1196884948
 H         -3.2505293977        3.0119120202       -3.0181659238
 O         -2.2568520925        1.7917143824        0.7672840909
 H         -2.8116488720        2.5790993414        0.5600756466
 H         -2.5491119369        1.0950015965        0.1434380923
 O         -3.8836551856        3.7871338919        0.2101796817
 H         -4.6744364555        3.2334857597        0.0365280137
 H         -3.6828754095        4.2127645459       -0.6390477636
 O          0.4215988533        4.9727075938        1.6592055394
 H         -0.5486806677        5.0236533176        1.8334629331
 H          0.8044253405        4.7932179802        2.5295307294
 O         -2.2895826444       -4.1481956109        1.8752574818
 H         -2.1787419187       -4.1351146025        2.8281043471
 H         -2.3138295188       -3.2004594632        1.6088925371
 O         -1.5388980853       -0.9400883286       -2.6739094947
 H         -0.7086009071       -0.5361956983       -2.9941756048
 H         -1.2912560430       -1.7252264942       -2.1442538333
 O         -1.1080047701        2.2972709995        3.5044389461
 H         -0.3760714520        2.8892280712        3.7458359300
 H         -0.7401282881        1.6602111711        2.8632933162
 O         -5.6439335725       -2.3523859047        0.3736438009
 H         -5.5570528638       -1.4312874626        0.6631271550
 H         -4.9735493046       -2.5180782924       -0.3090236396
 O          1.0714559017        3.8792220204        4.1884776754
 H          1.5452444156        3.0600215467        4.4469403983
 H          0.9855415975        4.4136194844        4.9780674420
 O          1.8833828221       -1.4841846297        3.4201520605
 H          2.6759768585       -1.0260061451        3.7615046782
 H          1.5618513261       -2.0385091886        4.1424921399
 O          1.8739395051        1.5296780195       -1.3470026097
 H          1.3903287853        2.0458548323       -0.6830000666
 H          2.3998054891        2.1549783587       -1.8608800064
 O          5.4599840585        0.2758116011        2.3269943589
 H          5.4076574678       -0.5294084013        1.7667981364
 H          5.1479129308        1.0121925752        1.7868243879
 O         -1.0614000407        1.4903078718       -5.0693408904
 H         -1.1496233497        0.5626279505       -5.3650022591
 H         -1.8512176303        1.6942907807       -4.5411143998
 O         -2.3759129330       -1.4745819705        1.4714976506
 H         -2.9798003674       -1.1978504288        2.1753989349
 H         -2.7122515812       -1.0938297394        0.6410604995
 O         -3.7373723596       -2.0901164319        3.8912256130
 H         -4.2714730766       -1.8041788261        4.6298896854
 H         -4.2736545982       -2.7697837258        3.3956817397
 O         -3.0433230754        4.6377378735       -2.2556587978
 H         -3.1524800558        5.4625223298       -2.7287944334
 H         -2.1218732157        4.6356028641       -1.8993539922
 O          4.1105471237       -0.3438232028        4.4709733905
 H          4.7266630651       -0.8418952488        5.0076364178
 H          4.6268746158       -0.0518931125        3.6691757792
 O          0.7254584006        0.3300236228       -3.4246572123
 H          1.0458642514        0.8054542972       -2.6199080602
 H          0.1826253096        0.9496237939       -3.9443911976
 O          4.7896062133       -2.9462895582       -1.7679782717
 H          4.5740342993       -1.9849927794       -1.7369952596
 H          5.5009095497       -3.0547892397       -1.1325496764
 O          2.4921775381        4.1863274991       -0.1460258644
 H          3.2066612547        3.7662616828        0.3573941946
 H          1.9638981718        4.7043677989        0.4699257601
 O          3.2322597943        2.5551137312       -3.5624514129
 H          2.4776764564        2.8608780154       -4.0920333270
 H          3.4203140311        1.6622225387       -3.8961793946
 O         -1.0457856335       -2.1219946493        3.8734298719
 H         -0.7954006088       -1.2681143081        4.3029692842
 H         -2.0203830665       -2.1436203586        3.9277541844
 O         -1.1185254878       -1.2084953217       -5.4975452749
 H         -1.9884420494       -1.6132682127       -5.4928089230
 H         -0.5474201833       -1.7753930949       -4.9543083378
 O         -3.1968867075       -0.1566619993       -0.7727206665
 H         -2.5517902476       -0.3777707007       -1.4836411271
 H         -4.0498106269       -0.0519954960       -1.2026590756
 O          0.3232090344        2.4562482694        0.7434951731
 H          0.3684723818        3.3972077235        0.9998432508
 H         -0.6244492223        2.2088812888        0.7662687810
 O          0.3296003852       -2.5826647454        1.3013378661
 H          0.4532270255       -3.5426010860        1.1626601584
 H         -0.1274715844       -2.4847065890        2.1478943142
 O         -5.1865848545        0.3948145520       -2.7910644384
 H         -4.7298119387       -0.4036822170       -3.1961730457
 H         -6.0175460568        0.4788184610       -3.2596736894
 O          0.0510591358       -5.2499316052        1.0401705818
 H          0.4811475551       -5.5673156244        1.8439913320
 H         -0.8750197299       -5.0479171515        1.2734739545
 O          0.4692425363       -2.9250538208       -3.8162259879
 H          1.4085815465       -3.0007445006       -4.0902636985
 H          0.2565312667       -3.7736385952       -3.4106112618
 O          2.0241604148        1.4069147808        4.6057703596
 H          2.1023942713        1.3316403543        3.6234513809
 H          2.8265053661        0.9783052947        4.9306317040
 O          2.5329326853       -3.6998143974       -0.5630592879
 H          2.7077772435       -3.7201586238        0.3992175449
 H          3.3992957229       -3.5625837305       -1.0018845366
 O         -3.7686226448       -3.2317302632       -1.4494210279
 H         -2.8271694117       -3.1150521933       -1.1825724010
 H         -3.9396359139       -4.1733507470       -1.4529761670
 O         -0.1637019725        0.0628064935        2.1332172359
 H          0.5339290817       -0.4253500755        2.6032456049
 H         -0.9539132654       -0.5128526034        2.1022565129
 O         -2.1250616197        4.5890262597        2.2446149198
 H         -2.8397875228        4.4652087304        1.6055342049
 H         -1.9980654875        3.7382658765        2.6965984583
 O         -1.1822665958       -2.9230790251       -0.9453530213
 H         -0.6323220943       -3.6780524906       -1.2507513614
 H         -0.7805836879       -2.6172042803       -0.1102809254
 O         -0.8541260118        1.8559577707       -1.7891923931
 H         -1.6859764104        1.8440987992       -2.2949564739
 H         -0.7124147328        2.7688249253       -1.4850667220
 O          0.6803101458        5.2895955500       -3.3472807083
 H          1.6155685078        5.4548390024       -3.0906057731
 H          0.7170110431        4.5797202347       -4.0068852222
 O          5.0884337054        1.9699773691       -1.4036428758
 H          4.7813629967        1.0397178152       -1.4774121285
 H          4.6622853165        2.4384298789       -2.1286396757
