  144
       -244.35709926
 O          2.9194403815        3.0007139520        2.2021225615
 H          3.0480975397        2.1110419188        2.5927197137
 H          2.3026195053        3.4683723253        2.8137732253
 O          4.9855084247       -0.6724615341       -0.3491402411
 H          5.1618152129       -1.0685277485       -1.2458200713
 H          5.1002684498       -1.4181938904        0.2853336543
 O          3.2863962386        1.2313691861       -1.4629244325
 H          3.9662018823        0.7591668857       -0.9629455444
 H          3.6753363227        2.0800452606       -1.7494853219
 O          0.9521097242        3.9609366969        3.6979691656
 H          0.5633093606        3.1562951900        4.0925337651
 H          0.3198621689        4.2372366462        3.0220617765
 O         -0.7614649755        3.7838157477        1.4686481558
 H         -0.0927818957        3.1953171848        1.0962033965
 H         -1.2799418224        4.1119835220        0.7111236857
 O          0.1428368845        3.3960362336       -1.8824146800
 H          0.6398641375        3.1441122596       -1.0807279349
 H         -0.6642183177        3.8496922452       -1.5844414030
 O         -0.2394994967        1.5874707757        4.3552995671
 H          0.2179052017        0.9593608321        4.9242608931
 H         -0.1122086414        1.2125983798        3.4557652608
 O          5.0123660960        3.5407418130        0.5156455775
 H          4.2837220927        3.5055345629        1.1593449982
 H          5.5674437961        2.7701382657        0.7174062661
 O          2.9837257921        0.4221760615        2.9725397787
 H          2.3618307888        0.1318402053        3.6642075249
 H          2.6319780213        0.0421220964        2.1406845218
 O         -4.5430825518       -1.8624657483       -2.4287786069
 H         -3.8283467323       -1.2937879738       -2.7812245842
 H         -5.3519446664       -1.3361201086       -2.5525107730
 O         -0.6113052955       -3.2128005798       -3.6112600652
 H          0.2721156452       -3.5080174132       -3.3619737594
 H         -0.5244397842       -2.4741799124       -4.2315325333
 O          2.0602824739        3.1932369194       -3.8623836558
 H          2.8595730547        3.4009623935       -3.3660633391
 H          1.3285485334        3.3999861254       -3.2596294536
 O         -0.7388186202       -1.0321130784       -5.4048023498
 H         -0.7979132956       -1.2036207202       -6.3444735561
 H         -0.0651449330       -0.3358173504       -5.2895060147
 O         -2.6902484958       -0.1945781580       -3.5409455858
 H         -1.9607823808        0.2154732619       -3.0330446049
 H         -2.2453297598       -0.6080686984       -4.2938297960
 O          6.4488807467        1.1701097583        0.9113758700
 H          5.9484928027        0.5076915650        0.3838634307
 H          7.3651365425        1.1066003398        0.6421251646
 O         -2.2280276424       -2.9664739590        4.6546025791
 H         -2.7699297922       -3.0201322504        3.8500046727
 H         -2.5010738860       -2.1625118311        5.1005921823
 O         -3.9171157043        2.4396374462       -0.9232952265
 H         -3.5368211055        1.5414856657       -0.7192670937
 H         -4.3785831677        2.7107445636       -0.0989848690
 O          1.0264152055       -4.8695120036        0.3992847227
 H          0.1465678560       -4.5404020167        0.6425733861
 H          1.1571406886       -4.6111251945       -0.5339844753
 O         -4.8178294448        3.1139818694        1.5019692779
 H         -4.1020060422        3.0602067281        2.1486519990
 H         -5.4587848250        2.4308858168        1.7602664359
 O          5.0002849235       -2.6550925528        1.4312466879
 H          5.3173933036       -2.0199509796        2.1160881639
 H          4.1091739163       -2.9143673309        1.7333214610
 O         -1.9044139117       -2.4491950189       -1.4077414704
 H         -2.7896369973       -2.7119976768       -1.6729245065
 H         -1.3387271304       -2.6907903500       -2.1746292243
 O          1.1909187386        0.8039007024       -4.8445257531
 H          1.5114201571        1.7152876823       -4.6993495592
 H          1.8902959488        0.2272421048       -4.4682007273
 O          5.5116048247       -0.5619195807        2.9896572723
 H          4.6088966616       -0.2041286824        3.1106467482
 H          5.9768254744        0.1174278918        2.4832057763
 O         -1.2068540489       -3.3619383630        1.0223976585
 H         -1.3783435255       -3.0353197376        0.1140964344
 H         -2.0426296635       -3.2106226787        1.4968230043
 O         -4.7648594261        1.6152699148       -3.3544259212
 H         -4.0177768739        1.0231384293       -3.5544099297
 H         -4.5139182049        2.0652929543       -2.5254400200
 O         -3.8385431971        0.1043795753        2.8269793406
 H         -3.3444006531        0.9310907972        2.9572383701
 H         -4.7640584403        0.3685466099        2.7041000939
 O          4.3475669727        3.6155992116       -2.0303412247
 H          5.1333182362        3.8837686083       -2.5067659493
 H          4.5631493982        3.7169790050       -1.0660437395
 O          0.1312406415       -2.6868336373        3.3432636007
 H         -0.2522068571       -2.8063049247        2.4542763327
 H         -0.6022122403       -2.9164053219        3.9450375753
 O          1.4091672130        2.2335863578        0.2152601860
 H          2.0110321539        1.7627996084       -0.3967747581
 H          2.0077874089        2.6177057356        0.9091258697
 O          2.3911981891       -0.8246837673        0.6327146442
 H          3.2802759528       -0.7659792886        0.2470709753
 H          2.3327305754       -1.7097392502        1.0636548687
 O          2.3845183821       -3.1771618139        1.8652455971
 H          1.9615159729       -3.8813827624        1.3035372252
 H          1.7711777725       -3.0640120516        2.6060282268
 O          5.1723668836       -1.8689849246       -2.6583151711
 H          4.9506743290       -2.7558398030       -2.3437537625
 H          4.3663927273       -1.5188235642       -3.0908023174
 O          1.6866442121       -3.7416605901       -1.9910097538
 H          2.6274628226       -3.7412710125       -1.7621784061
 H          1.3510077979       -2.8528392491       -1.7705853563
 O          0.9470828564       -1.1973725344       -1.5782138374
 H          0.3264195497       -0.4902498535       -1.8377707654
 H          1.3649168613       -0.9306146439       -0.7334080477
 O          2.8576607976       -0.6421931287       -3.3332190451
 H          2.1346158461       -1.0371410208       -2.7938466739
 H          3.0996526070        0.1439705192       -2.8018028037
 O         -3.5170146755       -2.5279260494        2.2560184553
 H         -4.1322401226       -2.6539013421        1.5154665270
 H         -3.5934293360       -1.5835725496        2.4903850193
 O         -5.1124391345       -2.6668991134        0.0121227963
 H         -4.8029648447       -2.3463142965       -0.8735447816
 H         -5.5439602792       -3.5073363238       -0.1449834164
 O         -0.3948403647        0.8856411178       -2.6477195424
 H         -0.2839266986        1.8193123408       -2.3705254458
 H          0.1027986638        0.8271683072       -3.4895153521
 O          4.3109618707       -3.9388637800       -0.9773243931
 H          4.3226590314       -4.8872225322       -0.8407502089
 H          4.6149332185       -3.5436779022       -0.1434144753
 O         -2.1471447035        4.3487076122       -0.8003463461
 H         -2.8022036448        3.5978988652       -0.8943875542
 H         -2.6419576969        5.1538220090       -0.9496821367
 O         -2.5358622130        2.5682303067        3.1807735177
 H         -1.9494122340        2.2751012061        3.8932978315
 H         -1.9455047465        3.0783804529        2.5928241328
 O         -6.5938081397       -0.0504043089       -2.5610313372
 H         -5.9387669668        0.6451965247       -2.8653389412
 H         -7.3550198903        0.0279581028       -3.1349825096
 O         -6.9040735021       -0.5645191784        0.1362731405
 H         -6.8332600056       -0.2563945923       -0.7832909277
 H         -6.2953697525       -1.3202059168        0.2026522194
 O         -6.3827348989        0.9652996833        2.1993554808
 H         -6.5873899338        0.4306317602        1.3881173134
 H         -7.1935792956        1.0036444129        2.7059745158
 O          1.2767375042       -0.7213494446        4.7752729416
 H          0.8136847568       -1.3388758777        4.1666571650
 H          1.7356961966       -1.2686653254        5.4129284613
 O         -2.6284759180        0.1084192265        0.0347553766
 H         -3.0866898890       -0.1629412262        0.8409932918
 H         -2.3759320599       -0.6904118353       -0.4515468299
 O         -0.1391091992        0.5418563201        1.8003821273
 H         -0.9502396708        0.4289325274        1.2922844910
 H          0.4817711117        0.9989302702        1.2084848939
 O          6.8251381206        1.0025338541       -1.9206903126
 H          6.0853847828        1.6082397212       -2.0028578411
 H          6.5986231782        0.2020333749       -2.4009498669
