  240
       -407.36568035
 O         -0.2326852193        0.3795837019       -1.7803046971
 H          0.5521783060        0.7268792527       -2.2548102738
 H         -0.6484529804        1.1514293740       -1.3590615072
 O         -1.3528176141       -3.6047562751       -4.7624682129
 H         -1.0788993914       -2.9783815929       -4.0618796415
 H         -2.2023950463       -3.2560891402       -5.0559600578
 O          2.7936538969        1.0621833864       -5.6726628347
 H          3.3102061805        0.2307586951       -5.7126961779
 H          3.3063617751        1.6816219536       -5.1261526374
 O          4.3864229672        1.3901312999       -2.0262919830
 H          4.6558188278        0.4800583597       -2.2906020179
 H          4.8285692581        1.5967624227       -1.1775075334
 O         -0.0638041041       -2.0151637815       -0.5198416795
 H          0.0216993573       -2.5893360581       -1.2975525981
 H         -0.1031952164       -1.1031632605       -0.8709384397
 O         -1.3186674790        2.6425588451       -0.6823100086
 H         -1.2923526706        3.5098087853       -1.1244320675
 H         -0.7680495781        2.7806081763        0.1195181818
 O         -1.2349149555        0.8699896229       -4.3635874520
 H         -0.9536810794        1.8072458971       -4.3692146171
 H         -0.4203917775        0.3189298957       -4.3500586397
 O         -5.2252653375       -1.2210614036       -0.8291369779
 H         -4.2662941668       -1.0478416050       -0.6729645269
 H         -5.3128709517       -2.1803951270       -0.8874982238
 O          5.6445763220       -0.6277434666        4.4547727964
 H          5.1957755543       -1.3160129760        3.9145540753
 H          6.5096889459       -0.9712095651        4.6738524382
 O          1.5199730426       -1.7647867846        6.2828757374
 H          0.7288564113       -1.4440016799        5.7998913237
 H          1.8189776182       -2.5389429324        5.7875292815
 O          1.4456131694       -3.1175266915       -5.2050366525
 H          0.6709477469       -3.4163990098       -5.6893674716
 H          1.2598508098       -3.3848072459       -4.2774917455
 O         -2.8581334387        0.0070297218        2.4648459025
 H         -2.2764283535        0.5316177953        3.0228288341
 H         -2.4066943468       -0.8435755034        2.3126212545
 O         -2.2713594024       -3.5965255378       -1.2446672048
 H         -2.0595285222       -2.7600546577       -1.7226659276
 H         -2.0457364211       -4.3084045638       -1.8760285283
 O         -5.0261439667        1.6145065174        3.9848622954
 H         -4.3203778085        2.2461689728        3.7643589593
 H         -5.2498773976        1.1884574235        3.1494626718
 O          2.1206860486        0.2500297637       -0.0943703576
 H          1.2576679472        0.1645416418        0.3630677766
 H          2.1497677501        1.1936590594       -0.3612270136
 O          2.4934578489        4.8697154030        2.0639911742
 H          1.7714401415        5.2411801514        2.5888936644
 H          2.4033657508        3.9034270861        2.1454952100
 O          2.2418793139       -3.5991555920        4.2815589344
 H          1.3335311662       -3.3500066977        3.9767455001
 H          2.3355277438       -4.5076579366        3.9859583118
 O         -2.9803189307        3.2027394523        3.0038206656
 H         -3.2188193443        2.8927505170        2.1043566618
 H         -2.8998627923        4.1682848079        2.9350935999
 O          4.4900513467        2.8070805546       -4.2151555301
 H          5.3697582477        2.7200560414       -4.5813553027
 H          4.4844388157        2.2838047657       -3.3710567459
 O         -0.6988902358        3.4980374545       -4.5002772535
 H         -0.0005821822        3.7492109836       -3.8661222377
 H         -0.2410931606        3.3173444577       -5.3415371681
 O         -5.0847087646       -1.6266503472        3.0007735490
 H         -5.0112305323       -0.8345615936        2.4163779627
 H         -5.8046744886       -1.4408376431        3.6036434968
 O         -2.5610341177       -4.7762542039        3.7404550534
 H         -3.0654488065       -4.4038674996        2.9989157150
 H         -2.5101010644       -5.7181638146        3.5728800156
 O         -3.2200397289       -6.3621984511        1.0060332152
 H         -3.7101744234       -5.5811841563        1.2969379773
 H         -3.4885598864       -6.5094588752        0.0831660094
 O          5.6085720995        1.9268669608        0.3076310302
 H          6.4853713734        1.5272890456        0.1677922959
 H          5.1573304607        1.3489752793        0.9470957809
 O          1.6736246481       -0.4204962793        3.0579870205
 H          0.8124243361       -0.5386586627        3.4969716524
 H          2.2965974555       -0.2879549332        3.7983851697
 O         -0.2499861813       -3.2092627409        3.5892501225
 H         -0.6539806052       -2.7747658581        2.8133318544
 H         -0.8752804731       -3.9012763377        3.8331458123
 O         -3.7639449857        0.2873174908        5.9608008253
 H         -4.2984140957        0.7417018576        5.2743998462
 H         -3.4968938341       -0.5639585778        5.5823731583
 O          5.0579978606        1.8346263003        3.3018315328
 H          5.2663265534        0.9352173692        3.6061326501
 H          5.0390810855        2.3882264576        4.0828204064
 O         -1.6021893449       -1.6763537870       -2.8988390331
 H         -1.1632826355       -0.8572185434       -2.6052180032
 H         -2.3056348705       -1.4493520911       -3.5326872507
 O          3.9265682668       -1.3665521380       -5.3870613882
 H          4.3721344946       -1.3556695058       -4.5255684353
 H          3.2601923874       -2.0628331673       -5.3503863525
 O         -3.5123237490       -1.6019564604       -4.8305769554
 H         -3.3119301867       -0.9960883304       -5.5562142479
 H         -4.2281205508       -1.1607147656       -4.3255945477
 O         -2.7515808515       -0.3746313422       -0.2245306530
 H         -2.7693729406        0.3100820165       -0.9158115508
 H         -3.0121407857        0.0315581210        0.6192604673
 O          0.9751871219       -0.5878648275       -4.3985393647
 H          1.1111918747       -1.4360489980       -4.8598254365
 H          1.6026759958        0.0616839860       -4.7671314127
 O          4.1783903421       -3.5781855512        0.5432573545
 H          3.9208293751       -4.4716026144        0.2731278426
 H          3.3372691663       -3.0790019284        0.6210176472
 O          1.4458700502        5.8259328459       -0.3064397308
 H          1.8077812088        5.5116301208        0.5432551563
 H          2.1886613819        5.9305715567       -0.9045327736
 O          0.7186057504       -5.9573211888       -1.4312704320
 H          1.5916672256       -6.1098128424       -1.0336434862
 H          0.1311260667       -5.7281931784       -0.6761869026
 O         -2.7772984721        0.5827734523       -6.4467355899
 H         -2.1503093802        0.6933635052       -5.6833204750
 H         -2.3093088598        0.8937784768       -7.2209064961
 O          2.9654065568       -6.0454495054        0.1499170540
 H          3.3323171354       -6.8639449293        0.4805145412
 H          2.3785184862       -5.6761415830        0.8792387434
 O         -2.7199769181        5.8811888651        2.4676841179
 H         -2.8797888750        5.9695915367        1.4892440540
 H         -3.2192071531        6.5803736000        2.8876277416
 O         -5.4401397595        0.4512482532        1.3414942118
 H         -4.7896655514        1.1245162358        1.0733927690
 H         -5.5911029753       -0.0949384734        0.5508992405
 O         -0.2504421530        0.3046103808        1.0473370199
 H         -0.4523741173        0.6271683913        1.9319152981
 H         -1.0725444641        0.0128221930        0.6325418220
 O         -2.9896883823        1.2044002803       -2.3914375784
 H         -3.1186225894        2.1565435633       -2.5522265756
 H         -2.2872163444        0.9486747905       -3.0253923742
 O         -0.4546020499       -0.6603046327        4.7801424000
 H         -0.7616214055        0.1575071469        5.2123188076
 H         -1.2369856125       -1.2251823620        4.6629148511
 O          1.4954547509        2.3171732377        4.8126426061
 H          1.9756826906        1.5876337205        5.2276744989
 H          1.8865071668        2.3898519234        3.9158751784
 O          1.8548952373        1.4675620033       -3.0172053971
 H          2.6967976323        1.4133522992       -2.5386136473
 H          1.6571894289        2.4112099211       -3.1027949305
 O          4.8382736550       -1.1206431136       -2.7385453437
 H          3.8957027927       -1.3288644416       -2.5181287236
 H          5.3446914290       -1.3924414679       -1.9496280086
 O         -3.6680389823        2.4102658639        0.5045056086
 H         -2.7942151789        2.3990215484        0.0427249540
 H         -4.2035405244        3.0267681174       -0.0151783261
 O          1.9309840251        2.8753424478       -0.5121159854
 H          2.7786407842        3.3250699313       -0.3369885971
 H          1.3532389441        3.0426239452        0.2586185404
 O         -1.6453513800       -5.5771193308       -2.9776559737
 H         -0.7713840943       -5.8504481231       -2.6683608923
 H         -1.5014158442       -4.9602101074       -3.7336510884
 O         -3.3041017445        3.6256425509       -3.5097922660
 H         -2.4225689637        3.7240322100       -3.9014254633
 H         -3.8553866052        3.1597421238       -4.1825400710
 O         -1.7327057629       -2.2974470304        1.5805543042
 H         -1.2470072523       -2.1713712727        0.7422108386
 H         -2.5126752164       -2.8389598266        1.3938247004
 O          0.1240463677        3.3171200444        1.4071417159
 H         -0.0713457037        2.6230656883        2.0683265219
 H          0.0235137616        4.1641752967        1.8888887634
 O         -4.7511990450        4.1834023229       -1.3178804373
 H         -4.1928932244        4.0615685647       -2.1136885854
 H         -5.6534793124        4.2524590372       -1.6290460323
 O         -0.4647128640        4.0814902573        5.4287534895
 H          0.3763019604        3.5972055488        5.4025052732
 H         -1.1239124859        3.3997652348        5.6213200222
 O         -5.1183376730       -0.0701512298       -3.3045582963
 H         -4.3411406439        0.4247531471       -2.9500942663
 H         -5.4561106508       -0.5325021537       -2.5197802914
 O          2.5365553118        2.1067372660        2.3512638028
 H          3.4801375965        1.9588660325        2.5531214037
 H          2.1330350587        1.2201525847        2.3048095836
 O         -3.8723953565       -6.5147764461       -1.6981238697
 H         -4.1065135742       -7.3589127388       -2.0830192744
 H         -3.0866746660       -6.1998051962       -2.1875559444
 O         -2.8832696570       -1.9935979056        4.6107031595
 H         -2.7666037186       -2.9479843580        4.6246168205
 H         -3.5530574375       -1.8042473360        3.9257743738
 O         -4.1135572741       -3.7553892904        1.6521454209
 H         -4.5747062606       -3.0423042311        2.1296756276
 H         -4.4974833938       -3.7686710867        0.7480938503
 O         -0.9427955043        5.2246185324       -1.4002100135
 H         -0.1201022434        5.4473442775       -0.9135205320
 H         -0.7221976846        5.3218001895       -2.3291886162
 O         -0.0959235023        5.3714936202        3.0814790245
 H         -0.9627559294        5.7331760936        2.8361761568
 H         -0.2335400959        4.9666274135        3.9636994903
 O          1.8633417920       -2.4196544026        1.2480028778
 H          1.7947816217       -1.7119017562        1.9203989342
 H          1.1574789320       -2.2302250310        0.5922110380
 O          3.0761423147        0.1158430309        5.3173528028
 H          2.5740588477       -0.5756651746        5.8179844833
 H          3.9984035144       -0.1598385881        5.2827406350
 O          4.2348827392        4.2270147218       -0.0379103475
 H          4.8467393800        3.4966887046        0.1653099942
 H          3.9682719062        4.6182130488        0.8033349087
 O          1.2348704573        4.1198613083       -2.7602013494
 H          2.0827119206        4.5917355032       -2.8834368870
 H          1.2988981655        3.7450391516       -1.8521811483
 O          5.8174302318       -1.5863552254       -0.2668233765
 H          5.4571206326       -2.4682179089       -0.0793804666
 H          5.2576374235       -0.9942623093        0.2969326562
 O         -0.8951607925       -5.1152221289        0.5462808752
 H         -1.2802038632       -4.3630556186        0.0583145290
 H         -1.6575036500       -5.6803352912        0.7857328608
 O         -1.4832940063        1.5314918610        6.1047478963
 H         -2.3995126404        1.1360587375        6.0728410922
 H         -1.2050579326        1.4793144438        7.0188079602
 O          1.4355631362       -4.9588075416        1.9314878704
 H          0.5282932504       -5.0799503010        1.6042945296
 H          1.6022222807       -3.9965651673        1.7828232259
 O          3.7389469937        5.0293488044       -2.6850151465
 H          4.0839621141        4.3609948404       -3.2999181831
 H          4.0505238299        4.7702014470       -1.8038123658
 O          4.2574408151       -0.1919854095        1.3565297591
 H          3.4184650506       -0.0693819953        0.8490423432
 H          4.0822622653       -0.8688581745        2.0286373282
 O         -4.7177370302        2.0574135273       -5.1381275714
 H         -4.0999215801        1.5760304350       -5.7167353865
 H         -5.1242618588        1.3768605459       -4.5832867070
 O          2.3055508878       -1.4235536542       -2.1564183167
 H          1.8086797482       -0.9942317995       -2.8836932857
 H          2.2041774045       -0.8304410114       -1.3764877855
 O          0.7077997271        2.5371389005       -6.6129451323
 H          1.1457065062        3.0915392432       -7.2581052842
 H          1.3989578134        1.9429822565       -6.2611786615
 O          0.8196996241       -3.5681772541       -2.6224458520
 H          0.9382662952       -4.4457842235       -2.2094757846
 H          1.5393629050       -2.9726360108       -2.3360396936
 O         -3.1671072291        6.1103461678       -0.1000239241
 H         -3.8234481661        5.4864283988       -0.4471963936
 H         -2.3405619901        5.8969228283       -0.5698640400
 O          7.7610745135        0.3115880358       -0.1026171323
 H          8.3644401755        0.0520971513        0.5932410438
 H          7.1824192078       -0.4558214526       -0.2681639193
 O         -0.7768673880        1.7445717898        3.3460732545
 H         -1.5366405916        2.3561421195        3.4391313321
 H         -0.1506098514        1.9091555769        4.0722647087
 O          4.2776614902       -2.3927939948        3.0332592437
 H          4.4091989415       -2.9450830631        2.2448983515
 H          3.5015517101       -2.7665652342        3.5061186583
 O         -4.8233036270       -3.9482056593       -0.9049652489
 H         -4.9525374802       -4.8447848813       -1.2294664781
 H         -3.8647707769       -3.7541366019       -1.0971626672
