  87
       -142.30597268
 H          0.4278082842       -0.8653018542       -1.0147405277
 C          0.5209007081        0.1517049390       -0.6379016213
 H          0.5599700726        0.8378041774       -1.4899398431
 C          1.8168858618        0.2338858288        0.1542132687
 H          2.5755861331       -0.3136136781       -0.4006046028
 H          1.6775608851       -0.2385921755        1.1254294166
 O         -0.6108784261        0.4595144459        0.1615647861
 H         -1.3314185206       -0.1567419074       -0.1273513512
 N          2.2965656350        1.6131284220        0.3483821831
 H          3.3178625388        1.5588442626        0.6343347928
 H          1.7634318190        2.1196776742        1.0870825675
 H          2.2552299715        2.1411753412       -0.5618929784
 O          4.9141157001       -0.6553709303       -1.3651971354
 H          4.4928469015       -1.3636607245       -0.8039188205
 H          5.7618847323       -1.0086168255       -1.6395654221
 O         -1.4178123871        3.2037676391        2.1194088552
 H         -1.5430130225        3.4199894352        1.1848527732
 H         -1.8928683900        2.3573019818        2.2435623651
 O          0.9997742480       -0.9716506041       -3.8358958529
 H          1.8261757568       -0.5122108636       -3.5890183843
 H          1.1703331786       -1.4213203492       -4.6661006760
 O         -2.5626285027       -1.0096273750        4.1725939163
 H         -2.7749232941       -1.8234426297        3.6671389083
 H         -2.6569046417       -1.2175411943        5.1025341845
 O          1.1412324823        2.8875622420        2.4540719547
 H          1.4674597406        3.7391668349        2.7462376166
 H          0.1476784717        2.9828192866        2.3822919712
 O         -5.0944387625        0.6096742859        0.7557115923
 H         -5.9413217679        0.9596898983        1.0354996444
 H         -4.8390389099        1.0815279587       -0.0605098532
 O         -0.3691603093       -3.1902775228        2.0319082033
 H          0.1765369224       -3.3443685873        1.2439045973
 H         -0.1722894580       -2.2782361690        2.3175233681
 O          2.0632988966        0.5260057192        3.6304014057
 H          1.8754028396        1.4414427384        3.3750142106
 H          1.2293343074        0.0472035001        3.4631044302
 O          4.0238084958       -0.8727455500        2.5786394155
 H          3.2914027970       -0.3555957542        3.0056394296
 H          4.5652398368       -1.2009181581        3.2975828138
 O          2.2859065731        2.6986484624       -2.0992315236
 H          1.3985075553        2.9048812035       -2.4445590870
 H          2.6389406079        1.9664964418       -2.6289169908
 O         -4.2302426615        1.9290920898       -1.4826220704
 H         -3.9302715742        1.2340321044       -2.1117698827
 H         -4.8071735883        2.5172872412       -1.9723741867
 O         -0.3156207984        3.0997930842       -2.8314388361
 H         -0.4972481949        3.9601537890       -3.2119115790
 H         -0.8475249582        3.0424703867       -1.9922763459
 O         -0.2285012274       -0.5771237196        2.7479251900
 H         -0.5424125384       -0.0706674147        1.9771341594
 H         -0.9781337319       -0.6180538398        3.3642822308
 O         -2.7050371871        0.8361543939        2.1101369804
 H         -3.5631629170        0.7865871321        1.6624656241
 H         -2.8026857900        0.3392282328        2.9327838545
 O         -4.2002018964       -2.0546513884        0.4259501224
 H         -4.6232477588       -1.2197694261        0.6701192178
 H         -3.8410240596       -2.4495269272        1.2395993449
 O         -3.3039364340        0.0688143789       -3.1543084303
 H         -3.8102886695       -0.4041386986       -3.8158603463
 H         -2.4648330275        0.3776305218       -3.6008112561
 O         -2.1913303000       -1.2661486760       -1.0379343884
 H         -2.9268000763       -1.6486348739       -0.4918807865
 H         -2.6303613192       -0.8287100426       -1.7874496049
 O         -0.2780667577       -2.8534421492       -2.1408422511
 H         -1.0541729407       -2.3995822441       -1.7557545120
 H          0.1089964280       -2.2428807141       -2.7839680768
 O          1.3113258737       -3.5263640691       -0.1501172386
 H          0.7336750842       -3.2965085135       -0.9226272426
 H          1.4747528320       -4.4688045700       -0.2175179868
 O          4.8318555452        1.0664071798        0.8617225100
 H          5.0645912624        0.5920698920        0.0490106611
 H          4.7159340975        0.3810584442        1.5491555795
 O          3.7863283166       -2.3711161296        0.2383815969
 H          2.9043799344       -2.7696638945        0.1302837898
 H          3.8176089673       -1.9847321106        1.1289295168
 O         -1.7256245979        2.7781372101       -0.6354393633
 H         -1.3351073128        1.9563285043       -0.2636124400
 H         -2.6449654151        2.5529126533       -0.8554750230
 O          3.3143507504        0.3709324019       -3.2599773058
 H          3.8886672927       -0.0053128601       -2.5534485018
 H          3.8961057509        0.5850837132       -3.9920433349
 O         -2.9271834332       -3.1714898194        2.5949236979
 H         -1.9801050600       -3.2432633303        2.3018298120
 H         -3.1902308376       -4.0527721858        2.8633735364
 O         -1.0619779025        0.8467139257       -4.2076769844
 H         -0.3552222423        0.1941248056       -4.0680466711
 H         -0.7641835693        1.6750914400       -3.7914776057
