  91
       -144.33824272
 H          0.7134523702        2.7286291451       -2.9870200731
 C          0.6567216287        3.0199091527       -1.9401534156
 H          1.4084629373        3.7847429440       -1.7618884324
 H         -0.3233020838        3.4532850031       -1.7491190033
 C          0.9075219151        1.8078294246       -1.0460816624
 H          0.8823644533        2.1284414817       -0.0014006038
 C         -0.2066028869        0.7712056568       -1.2489010173
 H         -0.1207223807        0.3338986636       -2.2439592805
 H         -1.1666493163        1.2888707328       -1.1787849796
 C          2.2806578566        1.2135909880       -1.3339596969
 H          2.4350887840        0.3174072452       -0.7418613911
 H          3.0618525855        1.9256641095       -1.0804678506
 H          2.3699449952        0.9640481331       -2.3868389527
 N         -0.2372738427       -0.3275279121       -0.2860162144
 H          0.5152896374       -0.9840465123       -0.4694479039
 H         -0.1279789078        0.0306269159        0.6572305482
 O         -2.6358987393        4.4019583257        1.2251551044
 H         -3.2785638598        5.1092313903        1.2795916712
 H         -2.4824794603        4.0904430244        2.1645078228
 O         -3.5369434428        0.7698192596       -1.9664352221
 H         -3.2026038640       -0.0936855304       -1.5779004271
 H         -4.4399027476        0.6014016022       -2.2387648826
 O         -2.1667549215       -3.8697120718       -1.4382679968
 H         -2.4976551131       -2.9733556215       -1.2229789992
 H         -1.6998112004       -4.1599555881       -0.6358982469
 O         -1.3038934710        1.1741456152        2.3720582923
 H         -1.5975524302        0.3610331847        2.8224456425
 H         -1.9440552720        1.3248608495        1.6467373930
 O         -2.6674895403       -1.3380337757       -0.7274057443
 H         -1.7396038054       -1.0329921610       -0.5112600032
 H         -3.2015272327       -1.2437268591        0.0943321152
 O         -0.3267476894       -3.2275117065       -3.1616916472
 H         -1.0790411262       -3.4719470936       -2.5486025985
 H         -0.1394662342       -4.0096418011       -3.6812210324
 O          1.5489567283       -2.6043563912       -1.3347713612
 H          0.8642348374       -2.7373880481       -2.0211172100
 H          2.3649411060       -2.3132848941       -1.8153980672
 O          3.1237568095       -2.7728933609        0.9087053708
 H          2.4795566004       -2.7023134425        0.1849407860
 H          3.8061438153       -2.1141256701        0.6776577875
 O          3.7801352020       -1.6905174742       -2.3908804950
 H          3.4463870966       -1.0790380510       -3.0791397858
 H          4.1342052521       -1.1461606074       -1.6769315631
 O          2.6354192360       -0.1581401067       -4.3256032666
 H          2.9995137917       -0.3182385433       -5.1966867213
 H          1.6819689958       -0.4032465526       -4.3900089384
 O          0.3858548372        4.7627551547        3.7489349157
 H          0.2999786576        5.0012752649        2.7902067388
 H          0.6729419590        5.5526381051        4.2058085612
 O         -2.0555251175        3.4913706918        3.6092108674
 H         -1.2256856438        3.9400308475        3.8457885025
 H         -1.7978702522        2.5933032303        3.3208049949
 O         -3.2473211918        1.7988055801        0.5820856557
 H         -3.3280957486        1.5799910580       -0.3635761262
 H         -3.1310507886        2.7612223182        0.6524075314
 O          0.0839503648       -0.8783558976       -4.5975285987
 H         -0.6592594742       -0.2567875484       -4.5118940095
 H         -0.1572390353       -1.6730479105       -4.0961968917
 O          1.0828094844        2.4846076573        2.1886644342
 H          0.2682632755        1.9581211864        2.2846677724
 H          1.1016048450        3.0844578151        2.9438537106
 O          4.5941934899       -0.5805237823        0.2416599848
 H          5.5139309050       -0.4153050777        0.4486066531
 H          4.0680657285       -0.0238630452        0.8671571357
 O         -2.2924759735       -1.0867971690        3.4937338263
 H         -1.6692913303       -1.8341387827        3.2752857253
 H         -2.5359563172       -1.1994368694        4.4124394267
 O          0.0684907697        4.9878770214        1.1252447245
 H          0.5180162610        4.1474003890        0.9671158717
 H         -0.8804320752        4.8162953012        0.9887803962
 O         -0.7635428358       -4.6708931234        0.8274346694
 H         -1.1128650325       -5.5162031327        1.1119356276
 H          0.1280801397       -4.8540493257        0.4349157124
 O         -0.5660730435       -2.9669527501        2.9883551591
 H         -0.6747232462       -3.4975073941        2.1793165609
 H          0.2768903892       -2.4852622234        2.8988365936
 O          3.1387964042        0.6472587557        2.1036002134
 H          2.6120671645       -0.0902841850        2.4554724129
 H          2.5126700973        1.3866645313        2.0146183150
 O          1.8634969708       -1.6912046065        2.9162130695
 H          2.2883435479       -1.9796361723        3.7248912683
 H          2.3373861276       -2.1553457750        2.1697800888
 O          1.6147922953       -5.0718232491       -0.2600811222
 H          2.3445537544       -4.9566543387        0.3545613994
 H          1.6074252884       -4.2504707967       -0.8004143756
 O         -1.8939507513        1.0182400009       -4.1647425634
 H         -2.4800015623        0.9107309840       -3.3921679377
 H         -1.4651278191        1.8687659489       -4.0588859713
 O         -4.0906796194       -0.7275142838        1.4443672925
 H         -3.5422489001       -0.9216791897        2.2225773253
 H         -4.0278688514        0.2276948939        1.3039904289
  91
       -144.33640369
 H          0.5878508379       -0.0596719042       -1.8869807624
 C          1.0440298177        0.1573208426       -0.9267490123
 H          2.1183192696        0.2140363128       -1.0492205417
 H          0.6929193665        1.1277360497       -0.5933619845
 C          0.6858258834       -0.9302284312        0.0809654378
 H          1.1594841791       -0.6942028992        1.0354149308
 C         -0.8247239934       -0.9538078186        0.3140255915
 H         -1.1230291686       -1.9273068276        0.7063457081
 H         -1.3397395932       -0.7989059424       -0.6391411157
 C          1.1796252312       -2.2979764180       -0.3789264871
 H          0.9626966603       -3.0495391471        0.3741198078
 H          2.2527399707       -2.2790138504       -0.5423702842
 H          0.6913603825       -2.5879261765       -1.3041883983
 N         -1.1969572647        0.0514177900        1.3074870254
 H         -0.7329946537        0.9285555362        1.1087308635
 H         -2.1947865393        0.2143967601        1.2900038748
 O         -2.2081991533        2.2971942300       -0.8797775113
 H         -1.4278241368        2.4549599836       -0.3176083780
 H         -2.9250892697        2.0738001197       -0.2589509512
 O         -2.1683512695        0.6027937153       -2.9402628276
 H         -3.0202610841        0.7725528676       -3.3438994148
 H         -2.1217711484        1.1821881068       -2.1440125611
 O         -1.1947280155       -1.9909367491       -3.0621374424
 H         -1.5255191231       -1.0776212252       -3.0850783406
 H         -1.6744291272       -2.4121479528       -2.3337981903
 O         -0.4047619812        1.7118693578        4.2103357548
 H         -0.5455122709        0.7505190514        4.2202344425
 H          0.4175693589        1.8598110153        3.7252504952
 O         -3.0598401931       -2.8111745088       -1.0266548803
 H         -3.4692089159       -2.1251791981       -0.4507907500
 H         -3.7884308364       -3.2732794357       -1.4438148599
 O          1.4029789405       -1.7222974732       -3.7591218012
 H          1.4611891389       -2.1892137543       -4.5932875215
 H          0.4793142808       -1.8449025939       -3.4462719440
 O          3.8297829354       -1.0189712215       -2.4438699969
 H          3.0029613065       -1.4591228742       -2.6955703801
 H          3.8478269179       -0.2113509688       -2.9658035797
 O          0.1624271236       -4.7065885230        1.9187285804
 H         -0.7881177396       -4.5483592597        1.7002314940
 H          0.4369232143       -5.4582273003        1.3936045338
 O          2.0983569674        0.9698786613       -4.0573772601
 H          1.2567022378        1.4275015660       -4.2935128131
 H          1.8410309818        0.0407878185       -3.9304993062
 O          3.0671564173        2.5925173501       -2.2659939127
 H          3.6774986535        3.0936994055       -2.8084649099
 H          2.6438746267        1.9325170428       -2.8838399694
 O          1.8129717741        1.8882200905        2.3159002959
 H          2.5478091663        2.1834427673        1.7439532254
 H          2.0828193653        0.9778013899        2.5510917040
 O         -2.1892640807        2.9178529969        2.6083291119
 H         -1.5132731344        3.1770644578        1.9626589206
 H         -1.6736907123        2.4779494981        3.3208840155
 O         -3.9210742292        1.6296066172        1.1643178730
 H         -3.2880339279        2.0833051958        1.7991325575
 H         -4.7572965762        2.0842871604        1.2686592704
 O         -0.2945005257        2.0544098207       -4.4228284993
 H         -0.4584339371        2.8932928610       -3.9486102569
 H         -0.9054882909        1.4211811557       -4.0139222700
 O         -0.1053129108        2.9229912612        0.7747985104
 H          0.3886918610        3.5096508926        0.1751211879
 H          0.5705948498        2.5479050173        1.3855991855
 O          3.7765294738        2.1475044263        0.4371733667
 H          3.5114305010        2.2955357446       -0.4814410457
 H          4.0264896783        1.2106837275        0.4807209131
 O         -0.8564176062       -0.9907572474        3.6760506221
 H         -0.8951806043       -0.5607047355        2.7628862646
 H         -0.0879342190       -1.5847283105        3.6454397622
 O          1.3574382318        4.2939429153       -1.0773541105
 H          1.9361194071        3.6289445845       -1.5146394965
 H          1.9371957180        4.9618855136       -0.7093072346
 O         -3.1043467774       -2.2242817096        3.0768738868
 H         -3.6004181075       -2.3863364298        3.8790114280
 H         -2.2593311068       -1.7737001647        3.3558992230
 O          1.2646985038       -2.7569218477        3.3983117358
 H          0.8971982851       -3.4404971918        2.8017075183
 H          1.5224101739       -3.2104089774        4.2016952248
 O          2.8808616353       -0.5788280513        2.6729780269
 H          3.3583482930       -0.7321028381        1.8468305103
 H          2.3744952874       -1.3801608512        2.8710899468
 O          4.3829759670       -0.6001907579        0.1929304327
 H          4.1578368828       -0.7912889685       -0.7427401696
 H          5.3064347169       -0.8304809398        0.3000076519
 O         -2.3694450208       -4.2178811283        1.2912149564
 H         -2.5106197565       -3.7985741984        0.4249421087
 H         -2.6852182883       -3.5768857316        1.9514082227
 O         -0.9392167718        4.0760034313       -2.7143801880
 H         -1.5393298645        3.5988334639       -2.1253514777
 H         -0.1632687085        4.2946926006       -2.1802786004
 O         -4.2190407479       -1.1641732447        0.7535844928
 H         -4.1946998874       -0.2002171190        0.8417258481
 H         -3.8942648681       -1.5213866599        1.5986933338
  91
       -144.33546934
 H          1.5669322768        2.2950856890       -0.1886245008
 C          0.5244903413        2.0413081255       -0.3514913632
 H         -0.0943399309        2.8329602913        0.0569641232
 H          0.3462651706        1.9870635595       -1.4205236351
 C          0.1987174402        0.7028369202        0.3044985606
 H          0.2839310181        0.8059812305        1.3907483759
 C         -1.2433020853        0.2958293300       -0.0167341384
 H         -1.3284442507        0.0633155540       -1.0796655428
 H         -1.9043248988        1.1353050362        0.2072090812
 C          1.1791927570       -0.3626009331       -0.1686693713
 H          0.9482012263       -1.3317582411        0.2628283732
 H          2.1852109348       -0.0908942888        0.1268515081
 H          1.1440858089       -0.4436963094       -1.2503957827
 N         -1.7281092413       -0.8661960011        0.7348782022
 H         -1.1678692143       -1.6788775555        0.4934320245
 H         -1.5631950863       -0.7070083098        1.7298998154
 O         -2.6113931958        3.6074361248       -0.3434897530
 H         -2.7164887698        4.5397731942       -0.5357507655
 H         -2.1568959425        3.5428481397        0.5266769845
 O         -4.2495147234        0.2202629762       -2.2639919749
 H         -4.1334807933       -0.5166572299       -1.6187435675
 H         -4.8034610295       -0.1139398460       -2.9694362321
 O         -2.2337123968       -3.4100850324       -1.6275356252
 H         -1.6878711028       -3.6394066957       -0.8521579432
 H         -2.9944275643       -2.9207279901       -1.2832627299
 O         -2.5383592080        1.6238101307        3.4739905517
 H         -1.9473081416        0.8665950949        3.6105484046
 H         -3.3263588032        1.2572515371        3.0222998702
 O         -3.9968533558       -1.6575929292       -0.3805316374
 H         -3.1463237830       -1.3684997024        0.0749280621
 H         -4.6940325929       -1.5433750184        0.2705809065
 O         -0.5747159795       -2.0071830588       -3.1050368133
 H         -1.2211162433       -2.4921492271       -2.5289906997
 H         -0.6392281203       -2.4255295855       -3.9650794763
 O          2.0824012730       -2.5352157391       -2.5613162787
 H          1.1267192927       -2.3495595507       -2.5964725197
 H          2.4304749716       -2.1195640746       -3.3733119490
 O          4.1160122525       -1.7245206164       -0.8087154640
 H          3.4516805848       -1.9778598952       -1.4709751950
 H          4.2647990135       -0.7606773197       -0.9296040780
 O          2.5134618313       -0.8728763790       -4.6670689402
 H          1.6184442582       -0.6007135116       -4.8925250592
 H          2.8897590120       -0.1112454812       -4.1992157925
 O          4.2470194878        0.9384588598       -1.1365752341
 H          3.9353516619        1.4297053150       -0.3590567564
 H          3.6327361711        1.1480442280       -1.8573396088
 O          1.3107922662        3.1649463783        2.7879268127
 H          0.4328958206        3.2222513735        2.3760525511
 H          1.9420600395        2.9126591962        2.0916192309
 O         -1.4017501726        3.4853611618        2.0706890481
 H         -1.5605025971        4.2659300991        2.6041564406
 H         -1.8208307712        2.7325557289        2.5890833207
 O         -4.8835288187        2.0261165224       -0.2367127592
 H         -4.7852262893        1.4656462848       -1.0220554086
 H         -4.1415337408        2.6518440788       -0.2716434048
 O          0.0032952774        0.6504694797       -3.6833369537
 H         -0.7447729690        1.2170837066       -3.4129959633
 H         -0.2308745908       -0.2464318099       -3.3942974720
 O          1.4194213985        1.0488631677        4.3374074566
 H          1.5473045087        1.3213102758        5.2457398643
 H          1.3580704583        1.8828691286        3.7971105134
 O          3.4445121317        2.1810803700        1.2532952939
 H          4.2128947691        2.6769117726        1.5394311579
 H          3.4548370696        1.3431485527        1.7886964268
 O         -0.7083588173       -0.4668358284        3.5027036881
 H         -0.3132363961       -1.3462137209        3.3572126896
 H          0.0230387650        0.0665341167        3.8574657569
 O          2.4935983425        1.5156380046       -3.2310061015
 H          2.5449335763        2.3925123092       -3.6115600519
 H          1.5513042724        1.2357647973       -3.3017975933
 O         -0.5947625762       -3.9553733718        0.5054931558
 H         -0.8500103599       -4.8258481150        0.8145370746
 H          0.3189913903       -4.0660854758        0.1096120036
 O          0.6130973130       -2.7312618167        2.7221205426
 H          0.1021869079       -3.1553219541        2.0147376967
 H          1.5047643298       -2.6059551981        2.3712113725
 O          3.4242278317        0.0173828175        2.7570179536
 H          3.2182265711       -0.8305079908        2.3313474708
 H          2.7018595846        0.2112213652        3.3788416369
 O          3.1959907722       -2.4740492702        1.4685436694
 H          3.9210922274       -2.9301580351        1.8982904223
 H          3.5770336954       -2.1170221384        0.6015704414
 O          1.8513978641       -4.1765761205       -0.3417968705
 H          2.3613909248       -3.6646469822        0.3082366764
 H          2.0146930007       -3.7497962104       -1.1983698131
 O         -2.1475955925        2.0296643099       -2.7272587551
 H         -2.8814365809        1.4029409109       -2.6386998253
 H         -2.1721177908        2.5761351329       -1.9303223843
 O         -4.3061987550        0.4063276135        1.8281592239
 H         -3.5097412398        0.0170554647        1.4506254641
 H         -4.6429073682        1.0377510155        1.1551986787
  91
       -144.33522000
 H         -0.9606739302        1.8079348277       -0.1856863725
 C         -0.3377538250        1.4012370161        0.6012936872
 H          0.6282933863        1.1354332153        0.1913454379
 H         -0.1948918794        2.1634932883        1.3542947039
 C         -1.0098508938        0.1786931203        1.2113225359
 H         -0.3693290993       -0.2184950215        2.0022981206
 C         -2.3389659419        0.5927422753        1.8462064713
 H         -3.0051148789        0.9959114154        1.0769324015
 H         -2.1410975361        1.3893864752        2.5744159312
 C         -1.2140134083       -0.8991425860        0.1547423235
 H         -1.6457162204       -1.7815788661        0.6042028870
 H         -0.2670191452       -1.1736992328       -0.2934922958
 H         -1.8776989829       -0.5339214296       -0.6199887267
 N         -3.0172150799       -0.5549252443        2.4592762607
 H         -2.3686566793       -1.0251104319        3.0866466541
 H         -3.7953061867       -0.2277015021        3.0223338153
 O         -1.7625236652        3.7940655663       -1.2074582477
 H         -1.5277221468        4.0612485206       -0.2755586607
 H         -2.2036025092        4.5542292489       -1.5887794777
 O         -2.3019129152        1.2956148639       -2.4501060682
 H         -2.2507004761        2.1484782818       -1.9939569648
 H         -1.3885971415        0.9643286508       -2.5094407649
 O         -2.5180254336       -2.8244623741       -2.4256999563
 H         -2.4581132279       -3.3032269194       -1.5802086166
 H         -3.0797189385       -2.0473330557       -2.2478354671
 O         -0.5481690686        3.1768159560        3.5397232000
 H         -0.3501202014        3.8336540245        4.2086248150
 H          0.2888230667        2.7038507560        3.3731746132
 O         -2.4952249954       -4.0086833608        0.0959125282
 H         -3.1943924946       -3.3246346876        0.3384461240
 H         -2.9308997465       -4.8611768566        0.1265927250
 O         -0.1121227070       -2.2791938651       -3.2293637271
 H         -1.0571788129       -2.4388767475       -2.9395364213
 H         -0.0830600627       -2.5190145200       -4.1568510437
 O          2.7676529358       -2.0930097794       -2.6166928914
 H          2.9505914559       -1.3679901770       -3.2610346622
 H          1.8762939741       -2.3945861057       -2.8289833025
 O          2.9436782429       -3.8430349522       -0.3728786106
 H          2.0900648709       -4.2378355227       -0.6257472596
 H          3.2183661493       -3.3334765461       -1.1459141145
 O          2.8133150029        0.1397512793       -4.0428019117
 H          3.4440145987        0.6954056229       -3.5488020436
 H          1.9347569502        0.4395343301       -3.7672793995
 O          4.2853065587        1.5973384411       -2.2546944121
 H          4.5864088970        1.0831722201       -1.5016680693
 H          3.7581136306        2.3276151618       -1.8909047459
 O          1.8698948178        1.9187549071        2.9797044039
 H          2.4706198771        1.7856543586        2.2152895107
 H          1.6805378144        1.0176282584        3.2813803365
 O         -1.0664247611        4.6433976085        1.1829776278
 H         -0.0929464320        4.7475963249        1.1742077161
 H         -1.2262796634        4.0967617704        1.9678723408
 O         -4.0455986903       -0.6173028121       -1.8324879855
 H         -4.8181842283       -0.4806595891       -2.3815182307
 H         -3.4298730784        0.1287042403       -2.0331293484
 O          0.3532248902        0.3555082654       -2.6053309458
 H          0.8820260976        0.2018796329       -1.7945870998
 H          0.1333411440       -0.5422028666       -2.9164116478
 O          1.6337165021        4.4533184877        1.3748585323
 H          2.0294645888        4.1498062066        0.5435209587
 H          1.7756315108        3.7461704357        2.0149664586
 O          3.3765643124        1.5321598890        0.7494191015
 H          3.2368876789        2.3174764709        0.2071017911
 H          2.9516703486        0.7967755135        0.2649668177
 O         -0.8200935274       -1.8899448990        4.1679110180
 H         -0.7486932493       -2.2768722499        5.0411062945
 H          0.0261010489       -1.4297126761        3.9954154623
 O          2.7202849355        3.6152188223       -1.0872184913
 H          3.0783494897        4.4363829990       -1.4276797926
 H          1.8814407383        3.4427459654       -1.6082384443
 O         -0.4763230520       -3.6660599028        2.0511136269
 H         -1.2260386164       -3.7833526048        1.4494063760
 H         -0.7764742600       -3.0982854643        2.7796076090
 O          1.6793391702       -2.2321320327        1.3104406768
 H          2.2894970161       -2.8544642801        0.8501125618
 H          0.8776994169       -2.7691190914        1.4978806079
 O          1.6527558071       -0.8479822014        3.5670806349
 H          2.4377012597       -1.0841077830        4.0633662746
 H          1.7322271812       -1.3133587341        2.6975083683
 O          2.0941709827       -0.4230229697       -0.6335923086
 H          1.8575796779       -1.0100803774        0.1154364732
 H          2.5142984689       -1.0164381517       -1.2937749023
 O          0.3451172942       -4.2807769312       -1.1898911882
 H          0.1838316195       -3.6076886511       -1.8640133646
 H         -0.4065184792       -4.2554051963       -0.5910016845
 O          0.5765984363        3.1615059868       -2.4718786348
 H         -0.2445065982        3.4272369009       -2.0126732376
 H          0.4944550457        2.2133700862       -2.6438240598
 O         -4.2086168872       -2.1333547339        0.6174525887
 H         -3.7834895657       -1.5612122422        1.3127665940
 H         -4.2464145432       -1.5801930161       -0.1757326092
