  76
       -127.45756369
 H          1.3314515409       -0.8331803367        0.1683635467
 O          2.0096463163       -1.5983644375        0.4475169880
 H          2.5071330701       -1.9285384053       -0.4226156500
 H          2.7272341111       -1.2248124193        1.0322295374
 O          0.4043043876        0.1259160492       -0.3717587911
 H         -0.1150310922        0.6461313111        0.2882099374
 H         -0.2512606831       -0.4789100537       -0.8105023826
 O         -0.3333219525       -3.3337787547        0.6104987758
 H         -0.0525778096       -2.6860556358        1.2771703028
 H         -1.0749427058       -3.8058612972        0.9939854253
 O          4.1607211765       -0.6624931030        1.6211840665
 H          4.5872376761       -0.4016952737        0.7706819091
 H          4.7383799482       -1.3005971382        2.0425923040
 O         -0.1861396543       -1.1836415483        2.3976629453
 H          0.5021943675       -0.5043869707        2.3090020823
 H         -0.5596747225       -1.0527466544        3.2825559237
 O          1.8534302528        0.7227785465        2.3102667224
 H          1.8542347338        1.4596424664        1.6700820874
 H          2.7669908202        0.4265111373        2.3822289224
 O          3.3899947600       -2.1406549538       -1.5528720673
 H          2.9542828034       -1.9030808485       -2.3985989547
 H          4.1093088892       -1.4961155820       -1.4218085469
 O         -3.9639963563       -0.2651824200        3.4579489558
 H         -4.7828267578       -0.1103618707        3.9296974318
 H         -3.9079847411        0.4407414285        2.7520003568
 O         -1.6203496579        1.5354862019       -1.7808558772
 H         -1.5247446308        1.3778735619       -2.7332160117
 H         -2.5442437016        1.3571178916       -1.5486533434
 O         -0.8579706699        0.9867094057       -4.3411728234
 H         -1.1254739496        1.2045304175       -5.2338202215
 H         -0.7736811644       -0.0086625010       -4.3026717945
 O         -0.3258423570        3.5012369929       -0.6087809016
 H         -0.4948041500        4.3194180773       -1.0760331865
 H         -0.7902178142        2.7832055968       -1.1089348269
 O         -0.4670365571       -1.5798797171       -4.0565834062
 H         -0.7335731353       -1.7625574659       -3.1368291360
 H          0.4968824511       -1.6770642515       -4.0666695347
 O         -2.7624653430       -2.0007981917        1.7123064332
 H         -1.8719336240       -1.6215317639        1.8029439680
 H         -3.3080531197       -1.5353875815        2.3658789810
 O          2.2644500768       -1.0996908159       -3.7401417837
 H          2.7925836000       -0.9267527876       -4.5200129933
 H          1.9693356679       -0.2226603193       -3.3819931179
 O          1.9752854417        2.8670241156        0.6163818016
 H          2.1953812349        3.6580201583        1.1112860558
 H          1.1504674636        3.0691687064        0.1215363813
 O         -0.1747582357        1.8378465275        3.8075707916
 H         -0.6693462414        1.1442365865        4.2736554872
 H          0.7107035690        1.4831417320        3.6453602888
 O         -1.0688031787       -1.7642566777       -1.4063491602
 H         -2.0335386680       -1.7235280910       -1.2865620033
 H         -0.7503361842       -2.4545162982       -0.7792882355
 O         -1.0076703543        1.6299267112        1.3233210720
 H         -0.7179458452        1.7498754458        2.2642212552
 H         -0.9030682220        2.4859118395        0.8897203078
 O         -3.7036682162       -1.8071586103       -0.7048293697
 H         -3.3961341664       -1.8843118281        0.2420984933
 H         -4.2660850221       -2.5630784499       -0.8764758523
 O         -1.5596748711       -0.3961198392        4.6749809343
 H         -1.6782218794       -0.7229450345        5.5674580202
 H         -2.4553354524       -0.3195160727        4.2777121775
 O         -4.2089549275        0.7973097098       -1.1147820178
 H         -5.0154689265        0.9324048431       -1.6133687931
 H         -4.0819328335       -0.1699119970       -1.0193851563
 O          5.0216694621       -0.0738191555       -0.8248328490
 H          5.9309511191        0.1234266338       -1.0524646535
 H          4.4879830313        0.7371702167       -1.0786092165
 O          1.3353045093        1.1513241583       -2.7177544994
 H          0.5983657803        1.3176800551       -3.3306874079
 H          0.9190597170        0.8943551369       -1.8694221924
 O          3.5875434656        1.9936474395       -1.4276710259
 H          2.8798382270        1.7938934413       -2.0615359082
 H          3.1287048516        2.3442225032       -0.6447298587
 O         -3.6938346225        1.4709870977        1.5434172338
 H         -4.0116666022        1.2881198622        0.6469214976
 H         -2.7204977309        1.5335341089        1.4624608180
