  534
       -906.57450573
 O          2.9031298596        1.3636677744       -2.9967171748
 H          2.9624088722        2.2827029897       -2.7096394230
 H          3.4328207273        1.2715998090       -3.8110931056
 O          1.7848532129       -3.7154776117       -6.7599083386
 H          2.7078096307       -3.4524582808       -6.8603327345
 H          1.8223677056       -4.6745178133       -6.6271312890
 O         -0.8556967795        3.2081216022        0.0525056037
 H         -0.5707021166        3.7705645458        0.7869842571
 H         -0.0675716725        3.1769106389       -0.5274406207
 O          0.3209636081        1.0177136275       -2.1722184342
 H         -0.3551253346        1.6837426281       -2.3865685990
 H          1.1639542905        1.3640213306       -2.4985032834
 O          2.4530334710        3.1227440265        2.4132644585
 H          3.2865679235        3.5438666192        2.1262350371
 H          2.3938448215        2.3145417955        1.8651736195
 O          1.0719230927       -1.5473213700       -2.4835144689
 H          0.7057217870       -0.6504570232       -2.4456169117
 H          1.9522528140       -1.4650309419       -2.0814104554
 O         -6.0663865527       -5.5103112420       -0.4153044982
 H         -6.7198830259       -5.7347105185       -1.1215924956
 H         -5.5209546622       -4.8046534697       -0.7793880848
 O          0.7877088627       -0.3550950005       -5.1276986811
 H          0.3286317958       -1.0021959908       -5.7054811980
 H          1.5649945155       -0.8175911542       -4.7551810816
 O         -1.9142739749        5.9525978918        0.4192899530
 H         -1.3845993175        5.5709480226       -0.3049665996
 H         -1.3459150080        6.6211605458        0.8660367111
 O          0.6336190576       -3.5472602025       -4.1908167121
 H          1.0955614298       -3.3131957402       -5.0076064270
 H          0.5994251607       -2.7486969680       -3.6261387614
 O          4.9574528550        3.5558516673        1.5902894492
 H          4.8954523690        3.3488400383        0.6375276904
 H          5.0537156198        2.6902485737        2.0415298782
 O         -3.9611906460        4.6471871868        5.5169793923
 H         -3.3675768092        5.3259553537        5.1489229883
 H         -4.1920546747        4.0551902334        4.7783672842
 O         -1.9155852622        2.3774196222       -2.8543377936
 H         -2.5406781847        2.7468959819       -2.2009205683
 H         -1.8413788255        3.0160090957       -3.5799034873
 O          0.7171030924        0.7340460450        3.0642600216
 H          0.5970869814        0.6540204601        2.1021434894
 H          0.1945086170        0.0207376357        3.4873020822
 O         -1.8972837383        1.6629638417        2.0717299164
 H         -1.1983909027        1.5252615123        1.4098485819
 H         -1.9498513655        2.6282520341        2.2314842570
 O         -5.0687032484        5.0130628071        1.9955814174
 H         -5.9575592601        5.1491844593        2.3876767386
 H         -5.1375935698        5.1958329787        1.0296723217
 O         -1.9292708876       -4.2003180567        0.6493929849
 H         -1.6268373104       -4.0518502934       -0.2683599353
 H         -1.1175864089       -4.1647064480        1.1902733860
 O          0.3836973145       -4.1510832092        1.9475049961
 H          0.8665691422       -3.8171982752        1.1530341803
 H          0.6892473527       -3.6148689073        2.6921202084
 O         -2.7960645978        0.8379108991        4.4205312803
 H         -3.3986061607        0.1862868613        3.9920849664
 H         -2.1808242507        1.1054743153        3.7165750398
 O          3.0450044457       -0.0249093374        3.9932490941
 H          3.0231222532        0.3684940350        4.8872316897
 H          2.2359164480        0.3184063439        3.5561315112
 O          3.0055226217        5.9006640852        2.8907491266
 H          3.8605979661        6.2216657888        3.1808634290
 H          2.3145663405        6.3461800586        3.3939780739
 O          0.6811306754        3.7013652908       -3.5656526291
 H          1.5686777080        3.8247443820       -3.1941429637
 H          0.6520927023        4.1741656164       -4.4079773496
 O          6.2121546266        1.1858067109       -2.4626982796
 H          5.9022214044        0.4362149889       -3.0111173953
 H          6.6873272754        1.8010530064       -3.0498852898
 O          3.0277550825        3.5634228611        4.9876837009
 H          2.2914937958        4.0650452983        5.3716307370
 H          2.7764998747        3.3689241334        4.0586134229
 O         -0.4633478337       -2.0951798958       -6.7511528987
 H          0.2397594043       -2.7195185684       -6.9789857514
 H         -1.2027125222       -2.6344641475       -6.4089781607
 O          0.3011193906        4.6136617874        2.0781876986
 H          1.1550897087        4.1303209005        2.1209983089
 H          0.4004369624        5.3959441509        2.6472563836
 O          0.4480541418       -6.2163604664        4.2071137670
 H         -0.3920245508       -5.7316950515        4.1269093400
 H          0.5311811995       -6.7354164329        3.3990941663
 O          7.3569231909       -0.4654542398        2.2565360511
 H          6.4095684762       -0.6755050599        2.3778150129
 H          7.4604034434        0.4949932229        2.3586835922
 O         -0.1737910967       -5.9568323084       -5.1084012441
 H         -0.0563774841       -5.0220416405       -4.8550187269
 H          0.6900874989       -6.2391015010       -5.4408730062
 O          4.6132072587        2.7072347707       -0.9208345230
 H          5.1802581626        2.1327402900       -1.4709640274
 H          4.1584585548        3.3220866040       -1.5212183346
 O         -7.8889894898        0.2858097508       -0.9822067374
 H         -8.3797677052        0.7641743661       -0.2881483082
 H         -8.5718991166        0.0978818417       -1.6606346505
 O          4.2213538785       -0.9251038236        6.8542674703
 H          5.1818617221       -0.7965266490        6.7694144499
 H          3.8333834759       -0.0428913197        6.7408538582
 O         -4.1765138641       -7.5022730844       -0.3123753705
 H         -4.9342165595       -6.8965078741       -0.2130422085
 H         -3.5864963019       -7.3462552653        0.4421252460
 O         -6.1128524967        2.5115868748       -1.4838918404
 H         -5.4531064682        1.7993020666       -1.6832562787
 H         -5.6959031399        3.3312438558       -1.7950358241
 O          8.7274774912       -1.5643847963        4.1780523671
 H          9.3251759740       -2.2109048792        3.8018977512
 H          8.2037534568       -1.1807473416        3.4211938071
 O          6.0658788506        5.7215081451        2.5870015952
 H          7.0123038740        5.6391420297        2.4328325725
 H          5.6683987593        4.9005239465        2.2083058744
 O          2.6948986869        1.2961903542        0.5125933000
 H          2.6329890910        0.3253679017        0.5748419194
 H          3.5319413684        1.5241224629        0.0782818546
 O         -3.3257872595        3.4968102308       -0.8744705787
 H         -3.7782360081        2.9460083536       -0.1988083484
 H         -2.4146461031        3.6025643521       -0.5231566715
 O          1.5764617923        3.2220177358       -0.9733420016
 H          1.8894805910        2.4554970131       -0.4625626871
 H          2.0089008002        3.9923397827       -0.5769408660
 O          0.6747321351        4.5599424172        5.8530045127
 H          0.1288606486        4.5437461964        6.6396727343
 H          0.2506684655        3.9169135283        5.2249902306
 O         -0.3903228457        2.9688111907        4.0611742279
 H          0.0848059593        2.1647861252        3.7692695132
 H         -0.3432537828        3.5851425078        3.3005311561
 O          4.0943808198       -4.2011869758       -0.2713509993
 H          4.6035194038       -5.0326854254       -0.2075292720
 H          3.7916087206       -4.0404333364        0.6405735742
 O          2.8419404647        5.3179861704        0.2574275889
 H          3.7405792688        5.6515077328        0.0570609379
 H          2.7577441312        5.4354203598        1.2197958949
 O          2.6839175009        1.2729707854        6.2810410213
 H          1.7150729492        1.2229408646        6.3596167849
 H          2.8917521617        2.1568979702        5.9093087660
 O         -2.5912385400       -3.4644422913       -5.7521745371
 H         -3.4661031183       -3.0260413073       -5.7579131157
 H         -2.7487849543       -4.4037723083       -5.5247825615
 O          2.6775536696       -1.3537160386        0.9302910305
 H          2.5060072587       -2.0415545617        0.2732626121
 H          3.5853728896       -1.4809117066        1.2787845893
 O          2.9938306452       -3.6896256933       -2.7629443940
 H          3.1894866039       -3.8026284538       -1.8152839880
 H          2.0484152481       -3.8559872253       -2.9045675105
 O          1.9871263127        1.2973203680       -6.7075634900
 H          2.0545157486        0.7909850129       -7.5176285125
 H          1.5307959154        0.6991174998       -6.0368229010
 O          3.5872380970       -0.8311359186       -1.6571052120
 H          4.3485255359       -1.2242471776       -2.1109159469
 H          3.3697960272        0.0030972791       -2.1201061990
 O         -5.1723793393        5.4199364904       -0.5990451028
 H         -4.7472809137        6.2751575781       -0.8207550451
 H         -4.4900866337        4.7458476595       -0.8106156613
 O         -2.9216530110       -5.9794676387       -4.8331860081
 H         -2.9154354599       -6.1208594049       -3.8591858358
 H         -2.0473269375       -6.2556750939       -5.1351170679
 O         -4.6169558144        2.6665999981        3.7393677411
 H         -4.6476309363        2.5106246295        2.7770057640
 H         -3.9344891920        2.0513553249        4.0839840979
 O         -9.8336601747        2.2884049482       -3.5216224720
 H         -9.6956736518        2.8466316301       -2.7409633659
 H         -8.9715867070        2.2566619409       -3.9569653436
 O         -1.9598355517        2.9260653823        6.3221924279
 H         -2.7109933205        3.5421387132        6.2524030750
 H         -1.5852117160        2.9031837353        5.4270915522
 O         -6.8864774131        2.8508656740        1.1593579404
 H         -6.1443153133        3.3718152051        1.4900741373
 H         -6.6582264708        2.6463960625        0.2366116783
 O         -2.1217376400        6.1881120609        4.1488277722
 H         -2.1275227792        5.4018845919        3.5559696456
 H         -2.6724838742        6.8414267840        3.6734994851
 O          2.8817010813        4.0556209661       -6.8051841309
 H          2.1102265614        4.5812394803       -6.5518297816
 H          2.5766919731        3.1392966709       -6.8290183143
 O          0.4988211825        6.5463070473        4.0055211096
 H          0.7021101116        5.9635634095        4.7609428374
 H         -0.4830916505        6.6223112604        4.0683650111
 O         -3.7261792699        0.7019511408        6.9393935722
 H         -3.4631540502        1.4030722000        7.5368103481
 H         -3.3423252725        0.9499131184        6.0750140473
 O         -4.1919490218       -2.6196045687        0.5231829072
 H         -4.7244893644       -1.8082146146        0.5067809247
 H         -4.5110675780       -3.1612993301        1.2608558515
 O         -7.6936487359       -0.6720887336       -4.3438320611
 H         -7.5019470566        0.2924608423       -4.3021167692
 H         -7.5611406712       -0.9663741065       -5.2458789058
 O         -6.1932974413       -0.2703191473        5.9137107003
 H         -5.4047943806       -0.0379664281        6.4244728598
 H         -6.5297724759        0.5965576202        5.6036370859
 O        -11.4685276700       -1.3576583527       -0.7189768280
 H        -10.9498725980       -2.1630724565       -0.5236967983
 H        -11.0104459047       -0.9257551359       -1.4557359428
 O         -4.1161138563       -3.7711489953       -1.8294469863
 H         -3.5622588611       -3.1774568500       -2.3704256023
 H         -4.1141614282       -3.3565824708       -0.9318740373
 O         10.1816225669        0.7416379882        3.2791666151
 H          9.8350944499        0.0462752751        3.8545419145
 H         10.1479133013        0.3859109672        2.3711226201
 O         -1.7392972163        0.0818593734       -4.1349179208
 H         -0.7699456460        0.0330810682       -4.1913150797
 H         -1.9354761242        0.8814063484       -3.5994145229
 O         -0.6732933854        5.3067914004       -1.8994780361
 H         -1.4407163899        5.5308679214       -2.4595900500
 H         -0.1826845121        4.6060218748       -2.3820515908
 O          7.0843891645        4.6351851390       -0.6816741251
 H          7.7185978203        4.7805267143        0.0485878470
 H          6.8297165201        3.6981661694       -0.5676455691
 O          2.5599304293       -4.8126865312        5.0569048655
 H          3.3247066124       -5.3998658567        5.0379240545
 H          1.8012300367       -5.3598671047        4.7567890366
 O         -6.8880775092        2.1621706762        4.9991197069
 H         -7.5843962309        2.1588509080        4.3249244588
 H         -6.0473615158        2.3182920974        4.5102117716
 O          5.3081613960        0.0532122603        0.1893341866
 H          6.1106111136       -0.4326257161       -0.0581653233
 H          4.6124849166       -0.2907615494       -0.4072352186
 O         -2.2629292656       -6.6600032846        1.5297077723
 H         -2.3673836095       -6.4845311745        2.4703029338
 H         -2.2727125437       -5.7634096096        1.1125587225
 O          8.0350304302        2.1937555394        2.7125614196
 H          7.4871373292        2.2015317651        3.5395547937
 H          8.9091380582        1.8268771303        2.9725722189
 O          7.1491728952        2.0930331499        0.1259756294
 H          6.4296302795        1.4393624001        0.1070210623
 H          7.4821656985        2.1318374989        1.0349712447
 O          7.0489505704       -5.5699583278        2.2407227125
 H          6.8930273566       -4.7407622969        2.7349444880
 H          7.8811169048       -5.4395074346        1.7736184745
 O         -4.9158473986       -2.5533864469        4.9686818035
 H         -4.0765892932       -2.3744344999        5.4470016996
 H         -5.5900551342       -2.0475955990        5.4403843422
 O         -1.9813129360       -4.8779230437        3.8128420000
 H         -1.8535659872       -3.9938993881        3.4346497306
 H         -2.0104496842       -4.7387848282        4.7941209228
 O         -4.3117311191        2.0459174555        1.1185323182
 H         -3.4259051516        1.7686070510        1.4410238358
 H         -4.7681041962        1.2434948072        0.7860535256
 O         10.9002395425       -1.5334342807       -1.1183978081
 H         10.1477328083       -2.0515552877       -1.4458029807
 H         11.0183300053       -0.8480063081       -1.7934833216
 O         -9.4742805663        1.8986932934        0.5454217855
 H         -9.3486154353        2.5803573600       -0.1483777486
 H         -9.0673781278        2.2512786748        1.3488566872
 O          0.3683953665        4.9617861928       -6.0412009480
 H         -0.3018013054        5.6448187727       -6.0038675462
 H         -0.0408035963        4.1942993543       -6.4758783820
 O         -1.9705632339        0.2550150679       -6.7714690410
 H         -1.9698429580        0.2018358478       -5.7835731079
 H         -1.5151269062       -0.5457180577       -7.0596215510
 O         -3.5230174066        7.4230477925       -1.1382168042
 H         -3.2162009150        7.2579488935       -2.0338695896
 H         -2.8903476128        6.9560841996       -0.5482050552
 O         -0.2730232529        7.7562824112        1.4199510147
 H          0.2074200486        7.5903298337        2.2347971768
 H          0.3439812083        7.6393451936        0.6706021800
 O         -2.3471033138       -2.4032255154       -3.3397981179
 H         -2.2296851602       -1.4521738479       -3.5204835683
 H         -2.3279291547       -2.8368235475       -4.2180429837
 O          3.9700767243       -7.1262343353       -2.0593477894
 H          3.1528191391       -6.8131624778       -1.6204413354
 H          4.6471459617       -7.1163009038       -1.3756606493
 O         -6.9146643171        0.5003302867        2.4720527446
 H         -7.6937890026       -0.0085500111        2.1714001903
 H         -6.9832344548        1.3878262075        2.0677918157
 O         -6.5201536430       -2.4118686036        2.0002242736
 H         -7.0116879414       -2.0225797523        2.7407861934
 H         -6.6487301019       -3.3733555515        2.0805681373
 O          1.4469590526       -1.3663595284        7.6511148023
 H          2.3984677858       -1.2358823937        7.5586333092
 H          1.0123469270       -0.5342271103        7.4208960691
 O        -10.2455311165        0.1487835855        3.7891350762
 H        -10.7258371490        0.0787974513        2.9284847777
 H        -10.8988211522        0.0238432527        4.4767377192
 O          1.7777554205       -2.2963623483        3.2226267181
 H          1.9244259381       -1.8438028013        2.3641162951
 H          2.2921279764       -1.7674553465        3.8523334527
 O         -4.6894261303        0.2658489908       -6.4585572856
 H         -3.7964881098        0.2629064150       -6.8384301979
 H         -4.7863787771       -0.6087369879       -6.0246336387
 O         -6.7823307322        4.8637892856        5.4705242777
 H         -5.8353271293        5.0163085635        5.6146102925
 H         -6.8925738844        3.8982422459        5.5425209165
 O         -8.7124809140        3.5939860796       -1.3519973710
 H         -7.8449557319        3.1712627083       -1.4366577979
 H         -8.5411905724        4.4307093512       -0.8662609587
 O          3.3924724227        4.1496799655       -2.8797586831
 H          3.5529973206        5.0882578594       -2.6535290149
 H          3.9405414094        3.9983679480       -3.6763653366
 O          5.5876135807        4.4513898016        5.0516847129
 H          4.6350308962        4.2422815448        5.0597004251
 H          5.7572594089        4.9853161536        4.2596224324
 O         -5.7469710865       -1.5638881334       -2.7082223504
 H         -6.0820354312       -1.9477012617       -1.8807805436
 H         -6.5354435871       -1.3066185171       -3.2267974063
 O         -2.8012608639        5.7655665613       -3.4846084893
 H         -3.6404606730        5.3761952028       -3.1808026614
 H         -2.5439990567        5.1977150767       -4.2269200736
 O          4.9418761270        1.1248982094        2.6277995213
 H          4.2082000628        0.6801567447        3.1171803679
 H          5.0051735596        0.6454295427        1.7807244131
 O         -2.7078163477       -1.7124451901        6.2074749139
 H         -2.0267066393       -1.3936653452        5.5874543629
 H         -3.0340258561       -0.9286363569        6.6783829605
 O         -8.0296601092       -1.5848508225        4.2207554085
 H         -7.4376055542       -1.1619151354        4.8566624375
 H         -8.7300250151       -0.9400007675        4.0406571893
 O          9.0282193484       -4.5636161647        0.3850562193
 H          9.8057564135       -4.1293077241        0.0332866131
 H          8.3509404609       -3.8507669892        0.5370945514
 O          3.4439420588       -4.2395414802        2.3331729042
 H          2.8290344053       -3.6114226192        2.7683078909
 H          4.0488785548       -4.5501837511        3.0224386399
 O          5.4772841380       -0.9752180562       -3.7907396829
 H          6.0572120595       -1.5145927933       -4.3499675910
 H          4.6093913504       -0.9522614567       -4.2269085449
 O         -6.9806476185       -5.0910206451        2.0724601152
 H         -6.1243142147       -5.1572403955        2.5254832988
 H         -6.7831353711       -5.3206835698        1.1426258893
 O         -4.4158335058        0.7086433704       -2.3798150561
 H         -4.8883360500       -0.1417504149       -2.4959121085
 H         -3.6753604349        0.5048841803       -1.7352157933
 O         -2.9283042885       -6.1552845349       -2.1644763176
 H         -3.3899005311       -6.7858849787       -1.5546576167
 H         -3.2865275482       -5.2714450796       -1.9358752916
 O         -8.8708025161       -1.0150924587        1.4016870118
 H         -9.0238560734       -1.8941430411        1.7836100564
 H         -9.7390652537       -0.6012496667        1.3050966621
 O         -7.5479373470        5.0618898749        2.9287389414
 H         -7.8453964801        4.1544346806        2.7908654055
 H         -7.3429214153        5.1346304389        3.8916613847
 O         -2.3110687195       -2.3121223646        2.6160669947
 H         -2.4337248330       -2.8266565105        1.7966620448
 H         -3.1103986533       -1.7698304772        2.6891193206
 O          9.1427424809        2.3796345079       -1.6426054130
 H          9.7735333549        2.7833844987       -1.0341854714
 H          8.3750647705        2.1438494725       -1.0733950104
 O         -9.8429131569       -0.2562506636       -2.7054929225
 H        -10.0253845853        0.6556073864       -3.0245563903
 H         -9.3063074835       -0.6785475330       -3.3929286244
 O         -0.7587146082       -3.7654034738       -1.6962924916
 H         -1.2683980841       -3.2341171092       -2.3377456042
 H         -0.5898835099       -4.6387845998       -2.0971198821
 O          3.0508167139       -1.7197527735       -4.6511976649
 H          3.4889499967       -2.2951636861       -5.3031351044
 H          2.9865647274       -2.2566395690       -3.8403969577
 O         10.6092641207        2.7622697210        0.6571695276
 H         10.3025114718        1.8252108153        0.6893966137
 H         11.3479754437        2.8087713579        1.2636215167
 O         10.5801703442        0.5592828828       -2.9432775817
 H         11.2414943701        1.1082547931       -3.3626476322
 H          9.9915523866        1.1674249692       -2.4335551352
 O          7.7214680892       -0.4485136815       -0.8834277978
 H          7.3017867230        0.1623147519       -1.5182015601
 H          7.9704362848       -1.2450701360       -1.3807584816
 O         -0.5347187559        2.5082030099       -6.9352842076
 H         -1.1081104848        1.7144130810       -7.0110861786
 H          0.3605325629        2.1584478258       -6.8044204184
 O          1.0793709894        6.9903330077       -0.7840338099
 H          1.7548359596        6.3728369715       -0.4191268287
 H          0.4295742151        6.4132596000       -1.2377636289
 O          4.8741649117        3.8682823626       -5.0820704679
 H          4.2526690627        4.1299347640       -5.7966476737
 H          5.5586329094        4.5363884996       -4.9794871556
 O         -4.8494800317       -2.1078256837       -5.2190458275
 H         -4.8571694476       -1.9629986897       -4.2567817322
 H         -5.7075721266       -2.5559714195       -5.3941318771
 O         -7.8659872984        5.6683638953        0.0808145351
 H         -7.8676312450        5.5925920314        1.0430804878
 H         -6.9379690868        5.6597471646       -0.2005885509
 O          6.4190268740        1.9683259050        4.7269329500
 H          6.1464143291        2.8809476951        4.9853599208
 H          5.7408119517        1.6441920894        4.1069360809
 O         -9.0443125200        2.5153195869        3.2797086332
 H         -9.4345203536        1.6342210098        3.4615932522
 H         -9.6550674139        3.1636321005        3.6326272888
 O          2.2319301206        8.4034545809       -2.7115556547
 H          1.5543087416        8.7161387176       -3.3093826990
 H          1.7673976962        7.9713736169       -1.9562774303
 O          7.6871095769        2.9517647855       -3.8749951212
 H          7.2839159431        3.8316880545       -3.7941440900
 H          8.3528611297        2.8971642828       -3.1691971418
 O          6.9430372552       -2.7615595697       -5.3120394890
 H          6.9992100190       -3.4283019614       -4.6044051882
 H          7.7839577351       -2.2893153199       -5.3265940322
 O         -7.3079875903       -2.2992166307       -0.5637358075
 H         -7.6479493646       -1.3766802601       -0.6055536530
 H         -6.9722820836       -2.3793539902        0.3576508933
 O          9.8327018865        0.1797850031        0.6447243865
 H          8.9474634196        0.0809750664        0.2349515124
 H         10.3844326585       -0.4459097474        0.1318608028
 O        -11.3779566709        0.2150445994        1.3940649224
 H        -10.9186271970        0.9751061339        0.9929643402
 H        -11.5947928122       -0.3828020764        0.6377020114
 O         -5.4248126555       -5.0261815509       -3.9639491433
 H         -5.0248741742       -4.5354831796       -3.2254216670
 H         -4.7074131681       -5.4816255319       -4.4167000487
 O         -7.6045051667       -5.8514971329       -2.5279742477
 H         -8.0983161805       -5.0234403837       -2.6546193216
 H         -6.8716869545       -5.8094709279       -3.1620698593
 O         -7.1690875813       -3.3989206981       -5.2690950353
 H         -7.7813483560       -3.1982954264       -4.5455552813
 H         -6.6642893014       -4.1648336464       -4.9465901660
 O          8.6175409542        4.5627409582        1.5418632917
 H          8.2951967338        3.7996988138        2.0636486250
 H          9.4512704584        4.2344621069        1.1777337417
 O          5.3831637135       -6.4661770304        0.3511246612
 H          5.9865958940       -6.1407082199        1.0586337926
 H          4.6172135074       -6.8331666965        0.8315413565
 O          6.6001844990       -3.4598058635        3.8655310145
 H          5.7727716645       -3.2415028684        4.3341427503
 H          7.2790389582       -2.8847842254        4.2357714681
 O          5.2508236245        6.4072529827        0.0087162419
 H          5.9092760479        5.7413122562       -0.2991465891
 H          5.4571243288        6.5377427026        0.9461717913
 O          2.4443284660       -6.2918245464       -5.9183140515
 H          3.1065618086       -6.0475997411       -5.2276382203
 H          2.7709773058       -7.0836639726       -6.3435270870
 O         -7.1034603892        1.8955241202       -3.9798922146
 H         -6.9417781882        1.9681370586       -3.0193816237
 H         -6.2279344542        2.0055471907       -4.3929239223
 O         -3.8149542080        7.4077710543        2.4848949448
 H         -4.3018553329        6.5780576562        2.3137707067
 H         -3.5517984293        7.7594585248        1.6331041676
 O          4.3728065413        1.2406991538       -5.2543244780
 H          4.6770046203        2.1650686005       -5.2162478827
 H          3.6321277230        1.2253162674       -5.8785386334
 O         -5.5181653816       -0.1642055604        0.2842081860
 H         -6.1928821618        0.0475038813       -0.3795058459
 H         -6.0134967536       -0.2386022285        1.1240925641
 O          1.4871204594       -3.5131348284       -0.3399883701
 H          0.7078068734       -3.3519359742       -0.9105307916
 H          1.7349947850       -4.4469069403       -0.5071941982
 O          6.5614970222        5.3686443420       -3.2985766277
 H          5.7687307249        5.9181468762       -3.1889325670
 H          6.8603454549        5.1974067686       -2.3895845100
 O         -0.0194820163        0.8022342622        6.3960693894
 H         -0.6885371988        1.4817343960        6.5494362302
 H         -0.3555595591        0.2514922303        5.6755137779
 O         -0.6771489661       -1.1438465445        4.3834483219
 H         -0.1058891058       -1.8459231919        4.7710137315
 H         -1.2130316233       -1.5792528537        3.6943240987
 O          4.2560977651       -5.5098859619       -4.1047428207
 H          4.2262628915       -6.2438948028       -3.4419160815
 H          3.7702407548       -4.7816668513       -3.6317181336
 O          6.6212431862       -4.4395164525       -3.2015519588
 H          7.0095849845       -5.1018906806       -2.5752836378
 H          5.8289484858       -4.8745478012       -3.5679040182
 O         -9.2196613358       -3.5401423588        2.5918358267
 H         -8.5540818739       -4.2310539383        2.4371620928
 H         -8.9705848209       -3.1281203587        3.4282522346
 O         -1.7413910039       -4.2712734179        6.3447601280
 H         -2.2422219755       -3.4650807496        6.5318437096
 H         -0.8184482024       -3.9649743184        6.2619802372
 O          3.1845311068       -6.8949800523        1.8706372551
 H          3.0818685394       -5.9241325720        1.9579767050
 H          2.2926436148       -7.2411433848        1.7641463925
 O          0.4466534399       -6.7628474375        1.4374270522
 H          0.4508598937       -5.8070902130        1.6748848500
 H         -0.5028544921       -6.9758130962        1.3423902849
 O          8.8425947785       -0.9592681422       -4.4551545396
 H          9.5412869643       -0.4226352701       -4.0473487788
 H          8.2106253882       -0.3132111428       -4.8456116911
 O         -0.3327684155       -6.3175223689       -2.4688319901
 H         -1.2816713866       -6.4411441863       -2.2497960999
 H         -0.2634679021       -6.3633262199       -3.4411762949
 O         -9.8029553468       -3.4407049342       -0.1963659498
 H         -9.9383588434       -3.7339909168        0.7094148910
 H         -8.8969993772       -3.0779155722       -0.2193736443
 O         -4.5288160121       -4.3276355611        2.8810676522
 H         -3.6706201995       -4.6954031802        3.1441401162
 H         -4.7768190294       -3.7311821146        3.6039643758
 O          8.6452475522       -2.5568957357       -2.3263418232
 H          8.1295683648       -3.3394991685       -2.5378687901
 H          8.6961229227       -2.0190268103       -3.1464144569
 O         -8.5863253147       -3.2757969789       -2.8313013798
 H         -8.0519672599       -2.9511986576       -2.0878167433
 H         -9.4893524662       -3.2938995873       -2.5057383390
 O         -2.3305662101        3.6887599771       -5.2021442848
 H         -3.1217250772        3.1192982830       -5.1385082638
 H         -1.7306909026        3.2537983976       -5.8273908868
 O         -2.5090118650        4.2531941613        2.3632299428
 H         -3.4789905052        4.3135764347        2.3725807219
 H         -2.2392259541        4.8209095032        1.6075509703
 O          4.1933103929       -2.6122624326        4.7711671778
 H          3.5825356557       -3.3362309063        4.9758453132
 H          4.1813674523       -1.9997670207        5.5367464430
 O          4.2447184470        6.6543238543       -2.5434108383
 H          3.5895813206        7.3512306668       -2.7336098887
 H          4.5540155802        6.8195844610       -1.6406268404
 O         -5.1480437801        4.3706004430       -3.2718550437
 H         -4.8964045981        3.6265965775       -3.8469219693
 H         -5.9196106774        4.7888500011       -3.6527840462
 O          4.9539811499       -1.7442502577        2.2790600237
 H          4.6141751726       -1.9178888162        3.1744903854
 H          5.5218051754       -2.4904872098        2.0409340745
 O          7.5801593543       -6.0432007322       -1.3749051756
 H          8.1866965269       -5.5741111719       -0.7674646109
 H          6.8563020410       -6.3648258152       -0.8232159322
 O         -4.4611609194        2.0925668373       -4.6304926443
 H         -4.5451281350        1.4267247042       -5.3660037233
 H         -4.2709396225        1.5629356255       -3.8172472699
 O         -4.5085191025       -0.6764560814        3.1374864889
 H         -5.3373310154       -0.1943921178        2.9759251397
 H         -4.7631718403       -1.4074152847        3.7405525268
 O          4.4698376303       -3.4817469315       -6.1460547870
 H          5.3771856122       -3.1393617677       -6.1058678231
 H          4.4765391049       -4.2778957644       -5.5978305238
 O          5.7624147904       -2.5236836247       -1.4056713946
 H          5.0597665193       -3.0508673631       -0.9726698100
 H          6.0701022557       -3.0714617481       -2.1430737526
 O          6.7754267535       -0.4214682523        6.0487359798
 H          6.7052291602        0.4774666886        5.6853972508
 H          7.5261574412       -0.8325385130        5.6110585493
 O          4.7848464963       -6.0996579286        3.9912329612
 H          5.7083583058       -6.1005016265        3.7229651642
 H          4.3208417694       -6.7033430971        3.3926630261
 O          7.1656636537       -2.7952445949        0.8217473564
 H          7.4721556779       -1.9301406639        1.1244183437
 H          6.7130512556       -2.6422428845       -0.0394475562
 O          0.5927283080       -3.0048055079        5.7693759721
 H          1.3185732714       -3.5989057897        5.5400326223
 H          0.8922861066       -2.4775728273        6.5449311067
 O          1.7474026929       -6.1305564953       -0.8576822974
 H          1.0350416969       -6.2530920214       -1.5153100552
 H          1.3742119021       -6.5077926213       -0.0376283456
 O          7.1614619217        0.8107507026       -5.5352268283
 H          6.2013455355        0.7268011288       -5.4393698734
 H          7.4014314239        1.6558902490       -5.1276658237
 O         -2.4496037957       -0.3828466787       -0.9597644781
 H         -1.6724065827       -0.1236425572       -0.4493658244
 H         -2.7680793219       -1.2198503985       -0.6169383880
 O          0.0262739224        0.2096000300        0.3626447017
 H          0.4587724142       -0.6419850761        0.2709389329
 H          0.1876612009        0.6765899488       -0.4900453868
 O         -6.8518585410        6.6459832666       -2.7605742568
 H         -6.1780100698        7.1691140563       -2.3207065566
 H         -7.5324054805        6.4743349589       -2.1045419801
