  249
       -422.60555584
 O         -1.1583351856        1.1679970655        3.1535718159
 H         -0.2709561030        0.8516260209        3.3828303341
 H         -1.0525403705        2.0824110583        2.8375547494
 O         -0.9138274472        3.6894672190        2.1689531629
 H         -0.0217434974        4.0142498184        2.4328761138
 H         -1.3818547598        4.4499505243        1.7862892606
 O          0.5063085085        6.3648097571        0.9266942979
 H          1.0423908045        5.9107397089        0.2573093501
 H          0.8137933074        6.0275756871        1.7751525309
 O          0.1967693025        0.5313436841       -4.4099265890
 H         -0.3256482317        0.8628703280       -3.6467383543
 H         -0.3803958766       -0.0679655515       -4.9052841889
 O         -3.0921000959        3.0736251121        0.2152679352
 H         -3.8169513455        2.8559833766        0.8384138083
 H         -2.8531995313        4.0010192803        0.3620677164
 O         -0.1650990192       -2.0194284996        4.1743570133
 H         -0.5995727703       -1.7694461856        5.0131568674
 H         -0.8995559950       -1.9926857853        3.5131985340
 O         -1.6905941448       -0.9674649705        6.1119804812
 H         -2.6205876924       -1.1289375990        5.8596217371
 H         -1.5731368589       -0.0157390038        6.0803514767
 O         -2.3066435165        3.0868259370       -4.8991756315
 H         -1.4191818724        3.1042341865       -5.3067000911
 H         -2.1886856658        3.5533365957       -4.0565564212
 O          5.1082205433        1.4807076857        3.9655587980
 H          4.7211412987        0.7427673361        4.4634863959
 H          4.7853554000        1.3685455618        3.0380147528
 O         -3.1462126437        0.6206577040       -4.5935658094
 H         -4.1005923665        0.5866166158       -4.7366921119
 H         -2.8663611340        1.5710453014       -4.6837367978
 O         -5.7618540821       -0.2758924566       -4.7632348842
 H         -6.5540961902       -0.3306848014       -5.2959003297
 H         -5.2500749786       -1.1069399132       -4.9396535822
 O          6.0617733288        1.4696831508       -2.3288425410
 H          6.9414545387        1.5841028853       -2.6907749336
 H          5.7974023083        0.5535270267       -2.5854701667
 O         -7.4173558432        1.8019340552       -0.9647197824
 H         -6.9994384075        2.6131893449       -0.6240589124
 H         -7.4567411165        1.1995049509       -0.2038618124
 O         -3.6345052270        2.5393702773       -2.2992471746
 H         -3.4708694283        2.7606165722       -1.3523514461
 H         -4.2942976320        1.8115061729       -2.2874585550
 O          1.3743372307       -2.2869393564       -0.6787738075
 H          1.4995597202       -3.2417440382       -0.5102321968
 H          1.6835569532       -2.1756045945       -1.6003002127
 O          3.1144460228       -2.6422047031        1.5042045946
 H          2.2547346206       -3.0282062978        1.7726262982
 H          3.6334534583       -2.5661018819        2.3353017238
 O          4.2711619501        1.2142152323        1.4957496809
 H          3.4976521944        0.6392317965        1.3694242137
 H          5.0057157063        0.7642395982        1.0257542472
 O          4.2561755098       -2.0690739875       -0.8750244472
 H          3.6746656273       -2.2294710345       -0.1063364699
 H          4.8030178932       -2.8758613381       -0.9626202167
 O         -4.4228694595       -4.3931980975       -3.6222269073
 H         -3.5456186242       -4.6840235365       -3.3318970311
 H         -4.9280654971       -4.1720880019       -2.8212280113
 O         -5.9444745117        3.8574912464        0.0235979378
 H         -5.5556117845        4.3468164736        0.7714825953
 H         -5.6959338311        4.3457166540       -0.7730020256
 O          8.3296487784       -0.5135381530       -0.8095985140
 H          8.7449600367        0.0092172390       -0.1051749357
 H          8.3898885099       -1.4430936205       -0.5443572811
 O         -4.3319596357       -0.9590406714        5.3761852701
 H         -4.8571857934       -0.7234322789        6.1417136418
 H         -4.1301212678       -0.1022167287        4.9108912323
 O         -2.0880747498       -2.1388198000        2.4126257630
 H         -2.8532812485       -1.5285778663        2.2733489789
 H         -1.6503518610       -2.1542470642        1.5343408666
 O         -4.8026634029        1.8742422746        1.8837204566
 H         -5.6916210803        2.0439399860        1.5638290300
 H         -4.5836764389        0.9416013740        1.6502040933
 O         -3.0483822415        4.0650096208        4.0650207476
 H         -2.2361698705        3.9201023625        3.5605698021
 H         -3.3517967327        3.1905353142        4.3462800069
 O         -2.0948492874        5.6767847118        0.6465736090
 H         -2.4251980126        5.9878354081       -0.2328229670
 H         -1.2109902852        6.0903283190        0.7233889476
 O          4.5592009449       -2.7089563606        3.7172731509
 H          5.4196315042       -2.4739298678        3.3187510590
 H          4.2960578768       -1.9632614466        4.2814272861
 O          2.8540415192        0.1165078068       -4.1581804377
 H          2.9289269076        0.3805530791       -3.1803859989
 H          1.9397477895        0.3406142693       -4.4036999648
 O         -2.8636894520        6.3046293427       -1.7971147778
 H         -3.7272967773        5.9125845526       -2.0076515490
 H         -2.2136567216        5.7642176557       -2.2783069235
 O          3.6518687308       -4.4451724781       -2.9948698299
 H          3.1640362920       -3.5997060712       -3.1245936719
 H          3.5451567415       -4.9449061917       -3.8038456744
 O          7.6214295285        0.4034945853        3.4888155665
 H          6.8050428440        0.8822897965        3.7218625809
 H          7.3433006975       -0.4911809528        3.2249368914
 O          1.0015844740       -3.9067097697        2.5078202047
 H          0.2833741183       -4.3689199954        2.0255182509
 H          0.5812970758       -3.3712506480        3.1968457021
 O         -6.9953251494       -3.5873673178        2.1993406349
 H         -6.1973307609       -4.0243051044        1.8479269568
 H         -7.4638555982       -3.2398199990        1.4258181273
 O         -7.0276265621       -0.0343431307        1.0009393906
 H         -7.3107004938       -0.8459979838        0.5508841123
 H         -6.9250987587       -0.2794131523        1.9286039086
 O         -4.5060148806        5.1321903202        1.9753998424
 H         -4.1569151531        4.7697259157        2.8088911250
 H         -3.7687547746        5.6156408025        1.5801056366
 O          1.4995640886        4.4920798886        2.8625741663
 H          2.2948434184        4.6657338828        2.3159842731
 H          1.7975778420        3.8623052846        3.5446625477
 O          5.6807808786       -4.3465633411       -1.0488102743
 H          5.1918351779       -4.5762090307       -1.8520563144
 H          5.2231835528       -4.7979942586       -0.3094473144
 O         -2.6844134396       -3.8793626999       -0.4232845613
 H         -2.2418451019       -3.0104451949       -0.3907616846
 H         -2.4710157636       -4.2593798483       -1.3030262142
 O         -7.8229396423       -2.4214451680       -0.2058762943
 H         -8.5918179761       -2.4453773416       -0.7739545865
 H         -7.0839933346       -2.8547004889       -0.7000481932
 O         -5.0369542710        4.7737496124       -2.5026067710
 H         -5.4984115277        4.8622479608       -3.3352055303
 H         -4.5034274417        3.9420843411       -2.5566910682
 O         -1.6244208852       -1.0656512265       -5.8457620322
 H         -2.2576662654       -0.4101445168       -5.4379800374
 H         -1.6326532778       -0.9004354738       -6.7879765055
 O          2.4468315553        2.4843793438        4.4169417227
 H          3.4041882246        2.3604377974        4.3452088896
 H          2.0350427497        1.6641591219        4.1167805631
 O         -1.0993658084        4.4560863062       -2.7835051769
 H         -0.9572702189        4.0255221976       -1.9152559317
 H         -0.2239401474        4.5864264840       -3.1551006650
 O          2.0769689062       -2.3003794694       -3.2819979727
 H          1.1434527909       -2.4417011856       -3.5425956117
 H          2.3772901365       -1.4682338807       -3.7074583333
 O          5.9266913821       -0.3814765897        0.2534078511
 H          6.7608902970       -0.3157118867       -0.2655464289
 H          5.3309582305       -0.9810783496       -0.2460315972
 O          4.0636321066        3.1418684605       -0.4197218107
 H          4.1227215360        2.6092270306        0.3966624197
 H          4.9110720046        3.5837539657       -0.4918201497
 O          1.3609986912       -0.0149802401        3.5518041138
 H          1.5882131104       -0.1228207761        2.6046970899
 H          0.8200951115       -0.8165864249        3.7952768096
 O         -1.8162486619       -4.8543099912       -2.7275429858
 H         -1.2483055567       -4.1748813813       -3.1266882204
 H         -1.2271716349       -5.4920083213       -2.2630908992
 O          8.9080376436        1.1480272475        1.3204924934
 H          9.6417452870        1.6944875283        1.6002787969
 H          8.4339627140        0.8783970120        2.1525820742
 O          1.9829167833        4.2837868395       -3.5661014007
 H          2.7444790977        3.6503163777       -3.6305969077
 H          2.2787085731        5.0785545993       -4.0126994310
 O         -2.9238062445       -4.4837120837        3.3526378304
 H         -2.6374841686       -3.5946848424        3.0321178268
 H         -3.1244452495       -4.3874495020        4.2827277282
 O         -1.0963555465       -5.1444166727        1.3365849687
 H         -1.6537315923       -4.6533722394        0.6900212409
 H         -1.6643316796       -5.2725036787        2.1063863596
 O         -5.4560470905        0.6069622477       -2.1882398720
 H         -6.2487029642        1.0544166943       -1.7822495619
 H         -5.7089579755        0.2949392636       -3.0709262387
 O         -0.2504780256       -6.3000696659       -1.1195393269
 H         -0.6322166732       -6.2138308021       -0.2357764609
 H          0.6081385708       -5.8463522872       -1.0518184638
 O          0.3467880567        2.9978848777       -5.5279438544
 H          0.3826115913        2.0677242506       -5.2389932566
 H          0.8805396331        3.4825326394       -4.8831627912
 O          2.0575106019       -4.8919310997       -0.7912298543
 H          2.6813221076       -5.1590156045       -0.0880420870
 H          2.5890766902       -4.8378883344       -1.6029959198
 O         -0.5588933436       -2.5972639490       -3.7579674558
 H         -1.1401902990       -2.0441687379       -3.1812491948
 H         -0.8076136922       -2.3404221077       -4.6538001559
 O         -4.6696020059       -4.6264762300        1.2197651448
 H         -4.2088052331       -4.7851371869        2.0572743416
 H         -3.9654445841       -4.3127146975        0.6206965673
 O          3.5392249201       -0.5281497539        5.0114387994
 H          3.2652444118       -0.5558724864        5.9279755974
 H          2.7254359090       -0.3546886508        4.4778222526
 O          3.7336191573        5.1307594998        1.5330220877
 H          4.5235327496        4.6616564196        1.8891578547
 H          3.9064650593        6.0666798250        1.6277341605
 O          1.8885876008        4.6828486504       -0.8231954279
 H          1.9421422032        4.6228389765       -1.7914145771
 H          2.7017853153        4.2537159468       -0.4887863449
 O          3.2571706016       -5.2593447596        3.4815653410
 H          2.3770618764       -4.9185800553        3.2478086353
 H          3.7584097139       -4.4952739353        3.7967802347
 O         -1.2272260850        1.4017985035       -2.3066061383
 H         -0.8553059403        1.9158877751       -1.5730100030
 H         -2.0896033227        1.8345536808       -2.5004095891
 O          5.8892200004        3.8430337166        2.4092082353
 H          6.2354769614        3.3693633691        1.6314460254
 H          5.7566249204        3.1833606633        3.0970326492
 O         -1.7768508747        0.7242136469        0.5135915307
 H         -1.7540907200        0.6929478033        1.4818356610
 H         -2.2599987160        1.5382164032        0.2948993341
 O          6.7921562843        2.5226004712        0.1802544752
 H          7.5680322062        2.0340689423        0.4986165568
 H          6.4882422527        2.0659563994       -0.6202500241
 O         -4.2635350262       -2.3653282793       -5.3125135726
 H         -3.3177044565       -2.2260172175       -5.4202664086
 H         -4.3657462610       -3.1459345212       -4.7169618274
 O          7.9177119008       -3.1860398269        0.0973528344
 H          7.1439988859       -3.5408821901       -0.3760853971
 H          8.6017138667       -3.8517907880        0.0242422174
 O         -6.1310599444       -1.3531216581        3.2745094714
 H         -5.6178960257       -1.4698784475        4.0859320741
 H         -6.4802981776       -2.2367193313        2.9993465814
 O         -2.2808742070       -0.9808053495       -2.5401905385
 H         -1.8035774962       -0.1941548510       -2.1980210601
 H         -2.7931174653       -0.6083867182       -3.2786677942
 O         -4.1191641919       -0.6700347357        1.6944084226
 H         -4.9030709790       -0.9791781838        2.2017239506
 H         -4.2254246979       -0.9676366513        0.7637043098
 O         -5.6961269804       -3.5891184158       -1.2828790748
 H         -5.4784527782       -4.2140556774       -0.5818156991
 H         -5.1172731831       -2.8002932832       -1.1260275094
 O         -3.6372615627        1.3161894282        4.2487970699
 H         -2.7491845954        1.1477533240        3.8813611192
 H         -4.1909516753        1.5343411062        3.4712480022
 O         -1.1554110961       -1.7792274942       -0.0352919798
 H         -0.2281836408       -1.9044603975       -0.3129177366
 H         -1.3641605520       -0.8265451170        0.0010587631
 O         -4.3331668540       -1.3707557988       -0.8559722088
 H         -4.8553598777       -0.6424433687       -1.2625922728
 H         -3.4892182486       -1.3603806572       -1.3502925284
 O          4.0417137204        2.6547888502       -3.9089189558
 H          4.7121713575        2.4136344109       -3.2480864810
 H          3.7010202098        1.8127918285       -4.2495180589
 O         -0.3116653612        3.2474031737       -0.5170158971
 H         -0.6548695396        3.2904887616        0.3893447657
 H          0.5199321598        3.7690190967       -0.5279408459
 O          6.6934370576       -1.8794105207        2.2872061622
 H          7.2559743406       -2.4974845762        1.8044246137
 H          6.3381760287       -1.2854686452        1.5793090608
 O          5.2729907707       -0.9216000018       -3.2194320609
 H          4.8330417262       -1.3988709597       -2.5028118437
 H          4.5788296989       -0.6806535450       -3.8437310246
 O          4.0812953661       -5.0728083789        0.9549501985
 H          3.8329757767       -4.1319642887        1.1142252284
 H          3.9345935133       -5.4796019814        1.8323087194
 O          1.8932477902       -0.0571648246        0.8865183435
 H          1.7900295795       -0.9246562244        0.4489132972
 H          1.4443153161        0.5808919908        0.3236717810
 O          3.0642891872        0.6724543390       -1.6053778091
 H          3.5170424080       -0.0629267398       -1.1808620302
 H          3.5014513936        1.5018701119       -1.3576207691
 O         -9.7633422517        0.8579964561        1.0454824653
 H         -8.8586206196        0.5935482935        1.2582224987
 H         -9.7206528804        1.2934747514        0.1914281286
