  609
      -1033.89224757
 O          3.1078425159       -3.9977913638       -1.6196848921
 H          3.7782946526       -4.6414391816       -1.8926018159
 H          3.5495153471       -3.3662481650       -1.0207502108
 O          2.2806153078        0.0596030978        4.3715874435
 H          1.7050853077        0.8287168563        4.4844139520
 H          2.8311600879        0.2103383475        3.5813093722
 O         -2.6514025510       -3.5818793217        1.7182841847
 H         -2.7592686161       -3.1746610519        0.8286169968
 H         -3.2917955660       -3.0840543433        2.2651664545
 O         -3.5472399983        0.3483247488        1.8201680178
 H         -2.6956049022       -0.0610346633        1.5566548755
 H         -4.2505676609       -0.1310498184        1.3383499220
 O          3.1133639347        3.8623479499       -1.6126920514
 H          2.8422294621        3.7382335227       -0.6724285547
 H          3.7418887427        4.6161812069       -1.6226987040
 O          0.6032045487        7.6410671619       -1.2773064975
 H          1.5400013890        7.7312167758       -1.0052258854
 H          0.5172867451        8.0170266987       -2.1565765217
 O         -0.4007300894       -2.8037257561       -0.5110496922
 H         -0.8748528190       -3.6577151337       -0.5070894223
 H          0.4472342618       -2.9385063071       -0.0165012414
 O         -1.0693755743        2.3928572142       -1.4223903508
 H         -1.8396697997        2.3902926148       -2.0148859672
 H         -1.1088180641        3.2638369495       -0.9860667945
 O         -0.5234586829        4.2278752794        3.1768718682
 H         -1.2826885420        4.6644553606        3.5867345310
 H         -0.8763633077        3.6772218710        2.4557926171
 O          3.4625661449       -4.0236781210       -4.4769051308
 H          3.9801748095       -4.5805703130       -3.8792232786
 H          2.6735806740       -4.5656992534       -4.6868728543
 O          3.1058607820        2.7579935146        2.8202622264
 H          2.3073101856        2.6158261569        3.3817171296
 H          2.7607436203        3.0510546595        1.9521282759
 O         -1.6244245639        1.5721566796        4.0436849838
 H         -1.5588284482        1.7960304191        3.0922509388
 H         -2.3491775771        0.9332509084        4.1417462641
 O         -3.3116597196        0.3029536011       -1.0950006601
 H         -3.8101685226        0.3725653577       -1.9138380704
 H         -3.4487225721        1.1466209267       -0.6090175369
 O          0.3284125546        5.6345993420        0.8776056382
 H          0.2957118568        5.8286495582        1.8407547537
 H          0.6406291676        6.4316054640        0.4448356005
 O         -1.3008777404       -0.9730598079        1.3914489212
 H         -1.0984556385       -1.6254286711        0.7043865613
 H         -1.2842478963       -1.4558541790        2.2362706388
 O          1.2971066406        2.1168460521       -2.4829117728
 H          0.4080283564        2.2118636302       -2.0515167980
 H          1.8270053297        2.8754165656       -2.2042304235
 O         -1.1823134382       -2.2346927018        3.7862345501
 H         -1.8727116573       -2.7158193471        4.2585470697
 H         -0.9277748326       -1.4888822539        4.3790742704
 O          1.8134456999        3.4636287708        0.6140592283
 H          1.2550381865        4.2601037197        0.7404506201
 H          1.2153667023        2.7318995755        0.3895494536
 O         -4.3233199314       -5.6926544253        1.7393419013
 H         -5.0571590101       -5.4359021397        2.3190557961
 H         -3.7688201539       -4.8869980936        1.6357947103
 O          5.8873448004       -4.6820420714       -0.0179870179
 H          6.2604548653       -4.1053837259        0.6685717693
 H          4.9876062903       -4.9246892010        0.2748793324
 O          1.4530982666       -2.2755124829        3.2652606535
 H          1.6748692848       -1.4224075407        3.6715918638
 H          0.5148101617       -2.4396551708        3.4415277813
 O          1.0417112010       -2.7567936231       -2.7723834236
 H          0.3918266691       -2.8040214276       -2.0433105116
 H          1.8206253895       -3.2406963259       -2.4352470346
 O         -3.1857023882       -2.3384469141       -0.5551236461
 H         -3.1710861055       -1.3698039005       -0.6121904270
 H         -2.6962459781       -2.6655403903       -1.3298813373
 O         -0.8204678614       -0.7254251530       -6.4432752900
 H         -0.4637311428       -1.5460470982       -6.0580623104
 H         -0.0803525597       -0.2684233967       -6.8620727197
 O          1.0638283445        2.5220619679        4.4262625834
 H          0.4297368238        3.1340452310        3.9813159415
 H          1.4583286317        3.0330522663        5.1556987600
 O         -2.8402847453        5.5760764639        3.9824316803
 H         -3.1722605565        5.3945355745        3.0698735464
 H         -3.5967840689        5.4845499953        4.5638381960
 O         -0.8524853866       -0.3312958775       -1.7076056120
 H         -1.7489390962       -0.0162414693       -1.4602130922
 H         -0.8108047645       -1.2562396407       -1.4322997740
 O         -5.4151242345       -0.9067061622        0.4217450606
 H         -5.0052004323       -1.5330261972       -0.1874571681
 H         -5.6692186010       -0.1101309972       -0.0853706287
 O          4.4746543389       -2.2090082886       -0.0583680327
 H          4.6870815006       -2.4575252290        0.8542161166
 H          5.1226362593       -1.5803927496       -0.3956463700
 O          4.4832702203        1.7469315509        0.3447732845
 H          4.4435156389        2.7121143352        0.4924522287
 H          5.4100387763        1.5009051055        0.4762486922
 O         -1.4436439709        2.3476178336        1.5313528634
 H         -2.2372593491        2.3984248118        0.9714124397
 H         -0.7800631273        1.8316415513        1.0389389258
 O          5.8507124579       -0.1572594806       -1.4714077821
 H          6.3607435934        0.0411003201       -0.6692100381
 H          5.5513964583        0.6973945947       -1.8238954386
 O          1.3056208082       -5.5584828466       -4.9176059827
 H          0.6813773309       -5.3582575391       -4.1721388963
 H          0.8179988189       -5.3996638086       -5.7264527397
 O         -4.1072056370        2.7750166394        2.8793667206
 H         -3.9284440106        3.5646099095        2.3343451041
 H         -3.7060575517        2.0066121775        2.4330773470
 O          3.0891626711        7.5068204683       -0.3097135953
 H          3.1055127260        7.0970657488        0.5732315156
 H          3.9547873240        7.9087372296       -0.4257804144
 O         -3.6580280583        2.6421161336        0.0121110965
 H         -4.5634850896        2.9308064448        0.2333379041
 H         -3.2581510054        3.3917341200       -0.4474858017
 O         -2.1691373035        5.8875323697       -2.9261146895
 H         -2.8227695785        6.5498474290       -2.6224876701
 H         -1.3835058493        6.3667199528       -3.2419933747
 O         -3.1057507534        2.9833102236       -3.0323514641
 H         -2.3723812979        3.4258683491       -3.4905773261
 H         -3.6289260858        3.6752904292       -2.5654456995
 O         -4.2179901159       -4.7610201437       -1.7770463816
 H         -4.6920322590       -5.5355441224       -1.3984841176
 H         -4.5241802369       -4.0138538765       -1.2323644935
 O         -3.4473570282       -0.4125018491        4.2960056830
 H         -3.4488208129       -1.3734758329        4.3737142885
 H         -3.6846338237       -0.2000420291        3.3624696384
 O         -5.2180120691        6.9275108385        0.3622358769
 H         -5.2581083013        7.6086490338        1.0331733202
 H         -6.1541615655        6.6577533279        0.1973396416
 O          2.5779977304       -4.7395836494        3.1413352249
 H          2.5261009640       -4.7338217686        4.1193595105
 H          1.6903441504       -4.4972142117        2.8435605084
 O          8.6042041140        0.8565416894       -0.9571634326
 H          8.5436083879        1.0264967869       -1.9205154499
 H          9.4888761550        1.1643234260       -0.6856269041
 O         -3.0210211961        4.8502796453       -5.3364038416
 H         -2.6887951524        5.1962537233       -4.4819280533
 H         -2.5907520399        3.9917992812       -5.5053898028
 O         -3.9828422329        3.0589670347        5.5665302077
 H         -3.0816075830        3.3198212792        5.8191094727
 H         -3.9539712235        2.8830015340        4.6024811846
 O         -1.8031962556       -5.1543643113       -0.5085615926
 H         -2.6703048245       -5.0416631178       -0.9311934438
 H         -1.9055605779       -5.7750315215        0.2235169779
 O         -0.3330492123       -5.2405685926       -2.9135916123
 H         -0.9806804839       -4.5037780201       -2.9145105651
 H          0.1164715252       -5.1850464463       -2.0303527804
 O         -0.0390736592       -4.6091363672        1.9437539165
 H         -0.8809256521       -4.1339742457        1.8839355201
 H          0.2395812987       -4.8054898489        1.0312943390
 O          6.7009228545        4.1477938642       -2.5920023263
 H          5.9599926537        4.7750452960       -2.4439716656
 H          6.9188762755        3.7839039871       -1.7116544773
 O          6.7345642400        5.0089744058        4.0254927611
 H          6.8516349290        4.2183111600        3.4321461632
 H          7.3076932316        4.8877198108        4.7805235544
 O          5.1725896803        1.6007254744        3.9719721690
 H          4.3953782190        1.9035265545        3.4544604667
 H          5.2910685445        0.6612065655        3.7530780762
 O          4.5271186180        4.4217865931        0.7003945377
 H          3.8410200878        4.9591114704        1.1201753147
 H          5.3579643016        4.8840879840        0.8954845493
 O         -6.3589781740       -0.5746250182        3.7183405283
 H         -7.2809080918       -0.8826158069        3.6710871951
 H         -6.3318923956        0.2479404393        3.1908671618
 O         -6.1911706786        2.7314040436       -2.9265092058
 H         -6.6786141596        2.0145635321       -3.3617102376
 H         -5.7807555860        3.2483294007       -3.6299826403
 O         -9.0301283824       -1.2942473633        3.9632802558
 H         -9.4525729569       -1.6745101486        3.1771044379
 H         -9.4266896071       -0.4222236724        4.0965778609
 O          3.4036820344       -5.4399492682        0.6937051334
 H          3.2487017887       -6.3196744802        0.3056461339
 H          3.2410520613       -5.5356665610        1.6458712077
 O          2.1822202234       -4.5677638310        5.7563299441
 H          1.3130127253       -5.0006003173        5.8015049780
 H          1.9881503849       -3.6252270012        5.9254306176
 O         -1.8681367191        7.5479578021        0.1024000759
 H         -1.0264796498        7.7122732848       -0.3410000889
 H         -2.5594844752        7.7888771482       -0.5198238627
 O          1.3799846034       -2.0544452772        6.3600735205
 H          0.9607143326       -1.4399147719        5.7308717348
 H          1.8887727471       -1.4673781941        6.9366788735
 O         -4.8504744927       -2.5871769705        2.7200989613
 H         -5.3906637305       -1.8556491786        3.0731264853
 H         -5.2407022150       -2.8087217179        1.8633998151
 O         -2.0596574849       -3.2036852197       -2.8465449137
 H         -2.8836547706       -3.6808695023       -2.9926201172
 H         -2.1192383895       -2.4024088989       -3.4209805716
 O          2.8085994023       -7.8017395428       -0.6101310934
 H          1.9417205711       -8.0778500859       -0.2852926885
 H          2.7012813603       -7.6992529680       -1.5744595593
 O          0.1335381894       -3.0267139448       -5.2878108877
 H          0.3346099920       -2.9648684278       -4.3297620286
 H          0.9737129884       -2.8379109312       -5.7359857400
 O         -2.5202439346       -1.1184191011       -4.3214430129
 H         -1.9118593405       -0.7408573592       -4.9680970912
 H         -3.1377100896       -0.4145552333       -4.0616133020
 O          4.2862649411        0.5665582179       -4.5991006089
 H          4.1797071376       -0.2986602084       -4.1563099286
 H          4.4571595607        1.2085643169       -3.8753405542
 O          0.0627659848        6.9894578663       -4.0984597548
 H         -0.1052056047        6.5882658881       -4.9590007394
 H          0.9857836390        6.7499692233       -3.8992192714
 O         -1.7270626538        7.8762222216        2.8632776676
 H         -2.2125490129        7.1549937502        3.2948843230
 H         -1.8586486807        7.7702423624        1.9059460579
 O          1.8686819358       -3.0356668408        0.7798017956
 H          1.7611920520       -2.7339008645        1.7040079682
 H          2.4256930207       -3.8230670210        0.7912864859
 O          4.0635654663       -1.6339542506       -3.0735734686
 H          3.5445065960       -2.3856174061       -3.3824992963
 H          4.8456210000       -2.0347728169       -2.6404901369
 O         -9.5766539420       -3.5501168659       -2.2277377106
 H         -8.7655265610       -3.0588164556       -1.9276973531
 H         -9.3705334847       -4.4743628799       -2.0647194683
 O         -2.9967001527       -2.0782344528       -7.4578559522
 H         -2.2627975917       -1.4896188214       -7.2063859892
 H         -2.7950378517       -2.9317792651       -7.0537458893
 O          0.1048680669        5.5569110544        5.7633431893
 H         -0.4853279888        4.7635353965        5.7632827005
 H         -0.3981877880        6.2665383415        6.1612469466
 O          8.3064488281       -6.6480823384        1.3365455688
 H          8.3175684861       -6.6348191673        0.3721586363
 H          7.4040643081       -6.8788973202        1.5957907392
 O          8.0028514566       -1.7525707850       -0.6728782979
 H          8.6629586975       -2.4301698216       -0.9061290131
 H          8.3609925527       -0.8618912948       -0.8414863389
 O          0.1425985685       -7.8534576504       -0.1372465694
 H         -0.3632355416       -7.8918629380       -0.9678483826
 H         -0.4978649535       -7.6976828388        0.5664194691
 O         -4.4161756845       -3.1411600565       -4.4961447779
 H         -4.6422158589       -2.3805943322       -5.0634974619
 H         -3.6706220405       -3.5687748671       -4.9662042896
 O         -4.3383523485        0.7642669675       -3.6558381899
 H         -3.9001656915        1.6130618824       -3.4159337419
 H         -4.6923395769        0.9353110510       -4.5513934951
 O          5.9843694321        7.6098600267       -0.6580423805
 H          6.8203699127        7.4625936627       -1.1417030381
 H          6.1280431775        7.1804930596        0.2051175667
 O          0.9078175901       -5.2777934761       -0.6114224604
 H          1.8159843130       -4.9768922381       -0.8060901162
 H          0.9070859003       -6.2284960639       -0.4166426410
 O         -6.0862864461        4.6674107860        5.0930585989
 H         -6.8382940107        4.0658974681        4.9685187453
 H         -5.3556118322        4.1029553131        5.4031770993
 O          6.9350902156        2.9051213323        2.4881169894
 H          6.2664753676        2.3761865414        2.9810077211
 H          7.7970283361        2.4806820890        2.6817566859
 O          4.7297780279        5.8392287525       -2.1411470146
 H          5.1060955373        6.5298564914       -1.5453322882
 H          4.0733335890        6.2660510864       -2.7156554102
 O          0.6359860334        6.7732524066        3.2763490813
 H          0.5055028831        6.2482573586        4.0810481804
 H         -0.1695488616        7.3317197539        3.1768151731
 O         -6.0516096727        6.2214890011       -3.3962169247
 H         -5.9043609769        5.6145769745       -4.1366819694
 H         -6.8795070673        5.9245554315       -2.9806713654
 O         -5.2689812099       -1.5167638972       -2.4834724193
 H         -5.1877060140       -0.6653800406       -2.9336372509
 H         -4.8243962777       -2.1603787816       -3.0533561008
 O         -4.4979191084        4.7658134669       -1.6886186492
 H         -4.9859428151        5.3704109399       -2.2692886667
 H         -5.0962297574        4.5532265234       -0.9510280721
 O         -3.2438716731       -3.0591485695        5.4196910778
 H         -4.1037138604       -2.7043775380        5.7208920316
 H         -2.6127529448       -2.9760619629        6.1601869573
 O         -5.3542552688       -6.7570009046       -0.4759847012
 H         -4.7487006129       -7.4991727247       -0.6649831017
 H         -5.0407573853       -6.4159005482        0.3917785474
 O          7.1206479893       -4.8469239813       -3.7443382303
 H          7.1742215475       -4.4547193165       -4.6194392947
 H          6.8694512789       -4.0936264588       -3.1495537649
 O          4.8745243122        2.1287164794       -2.5665067481
 H          5.6310897947        2.7154701658       -2.7396699602
 H          4.1854590802        2.7144607556       -2.1784252830
 O         -2.4874995685       -5.2458979469        4.0115613603
 H         -2.3212246792       -4.7653216940        3.1911465083
 H         -3.0182571602       -4.6398207741        4.5528905081
 O         -7.7650683563        6.3111443501       -0.0683279257
 H         -8.2861133381        5.9504736289        0.6584553893
 H         -7.8780092553        5.7034596239       -0.8225661176
 O          2.3747602046        4.1120360089        6.1984333087
 H          3.0147903691        4.4735986398        5.5462492694
 H          1.6518888904        4.7639143370        6.2035036584
 O         -5.4938638985        4.2021601295       -5.2864736925
 H         -5.8806409989        4.5956809135       -6.0681702353
 H         -4.5166133119        4.4728445831       -5.2931194720
 O         -8.5543377231        2.9700196749        0.2083193284
 H         -8.5678622111        2.0856320967        0.6326560071
 H         -9.4167827600        3.0413437823       -0.2400687865
 O          8.6854921347        1.4073165927       -3.5705390789
 H          7.9969052578        1.1405624298       -4.2068757913
 H          9.3823881680        0.7358810819       -3.6104529819
 O          6.6137533229        6.0292772173        1.4448043569
 H          6.6204351679        5.9805381768        2.4081717130
 H          7.4916849446        5.7213194676        1.1405023638
 O         -3.1968505562       -8.3201063982       -0.6934459039
 H         -2.5505593540       -8.1594471174       -1.3919041455
 H         -2.7692401622       -8.0830972027        0.1415216041
 O          1.6106010278        0.1875921542       -7.6183006324
 H          1.9225652157       -0.6985568302       -7.4089583554
 H          2.3918005176        0.7597170653       -7.5345157453
 O          9.1886275103       -0.5311874704        1.7758844551
 H          9.8620632195       -0.7706427641        1.1205824785
 H          9.1915926448       -1.1854092910        2.4981131556
 O         -1.6318651611        0.0250518563        7.6179291138
 H         -1.2236059023        0.7988933812        8.0118871256
 H         -2.5568005443        0.2720520111        7.3633609570
 O          4.4029239696       -2.8375165331        2.5911307415
 H          3.6317044066       -3.4148336287        2.7854109067
 H          5.1779525671       -3.3971686092        2.7587356939
 O         -0.4333780230       -5.3312850267        5.7355532668
 H         -0.7318914646       -4.7465562704        6.4377663664
 H         -1.1611585158       -5.3319166440        5.0763925718
 O          6.7316391795        0.4249584181        1.0325268597
 H          6.4203171019        0.0131152594        1.8652208331
 H          7.6765778095        0.2227019323        1.0146763204
 O          4.0183440462        4.8322974368        4.2053649150
 H          3.7900782272        4.0588387242        3.6355726140
 H          4.9868138825        4.9056822123        4.2185515590
 O         -1.3109373783        3.3189130736        6.0042009533
 H         -1.3299339764        2.7432765615        5.2050969020
 H         -0.7405121515        2.8488364467        6.6347451999
 O         -1.1636789466       -7.6774826212       -2.5646747235
 H         -0.6312783801       -8.2031140598       -3.1619412170
 H         -0.8768981515       -6.7262357813       -2.6862024734
 O         -5.5195792251       -1.7236413945        6.0132076288
 H         -5.2672650193       -1.0560549541        6.6610928389
 H         -5.7526555828       -1.2154663427        5.2075204568
 O         -9.0351443660        0.5887773232        1.2480921868
 H         -8.5224045880       -0.2550032235        1.3475814463
 H         -9.8214161700        0.3779340259        0.7101973496
 O         -7.7313604163       -1.6267267132        1.5061561430
 H         -8.0414915801       -2.4756198774        1.1605346680
 H         -6.8502888412       -1.4380531442        1.1270357094
 O          2.5410856378       -1.9264919936       -6.0143890522
 H          2.2518719015       -1.2804732875       -5.3107545193
 H          2.9997294502       -2.6351935711       -5.5441366698
 O        -10.1245732122        3.1123858421       -2.8545388869
 H        -10.6757584028        3.2963161230       -2.0830524492
 H        -10.2830201925        2.1771298225       -3.0476105788
 O          7.1667880199       -1.0150124016       -3.7148629460
 H          6.6041582990       -1.6403811114       -4.2033703260
 H          6.6982395222       -0.7628660022       -2.8985555544
 O          3.9322680785       -0.1009807187        2.3058887921
 H          4.0546145423       -1.0395418214        2.1298215902
 H          4.1493824001        0.4234466041        1.5214969177
 O          4.9120568777       -1.0866490636       -7.1805795832
 H          4.0259136121       -1.3518068819       -6.8801765114
 H          4.8237889193       -0.1683767316       -7.4592138331
 O          7.2383097677        3.0209667574       -0.1985868249
 H          6.9643597469        2.9712887647        0.7371815694
 H          7.6904618950        2.1772289710       -0.4098991767
 O          4.1477223146        1.8480344482        6.4274013363
 H          3.6380853006        2.6656838757        6.4576407007
 H          4.5048958115        1.7796259339        5.5123033895
 O          3.0305842474        6.2797060065        2.1332930410
 H          3.5062732427        5.9511158554        2.9167465270
 H          2.1664410075        6.5480366757        2.4902342186
 O          5.5248103891       -6.9055466433        2.0274018688
 H          5.6648780256       -6.0876132195        2.5393536369
 H          4.6454265178       -7.2230282974        2.2783899032
 O         -5.7411989212       -3.6158092362        0.2053567405
 H         -6.0792488385       -4.4153807657        0.6127044799
 H         -6.4760785108       -3.2005134806       -0.2771557955
 O         -3.9991283605        7.6358231435       -1.9582762386
 H         -4.4227379375        7.3237647174       -1.1308025866
 H         -4.6899145879        7.5517655915       -2.6250418022
 O         -0.7302460010        0.9897124156       -4.0938801007
 H         -0.5633231452        1.9373953371       -3.9414071712
 H         -0.8496165593        0.5741217625       -3.2218312478
 O         -8.0355290835        3.0459837226        3.9562259817
 H         -8.3695473721        3.7701297153        3.3942045135
 H         -7.4357833330        2.5328345818        3.3744747650
 O          1.9155368153        2.1198155580       -5.0216550421
 H          1.5335340739        2.1549244751       -4.1151769162
 H          2.4713765085        1.3282788522       -5.0120842545
 O          2.6404204777       -7.3689472352       -3.2779656836
 H          2.1105373043       -6.8776903105       -3.9187061635
 H          3.4990762950       -6.9158261289       -3.2550826490
 O         -7.9440529277        4.6472024237       -2.2142672295
 H         -7.2828131912        3.9307436188       -2.2873014619
 H         -8.7785982860        4.2392094111       -2.4945757372
 O          1.5768158501       -0.4624642848       -4.0783229960
 H          1.3501941735       -1.2014948247       -3.4873895260
 H          0.7474415681        0.0330221054       -4.2248342640
 O         -7.3750763548       -3.4421202200        4.7624175037
 H         -8.0215564718       -2.7559501354        4.5444138192
 H         -6.7032335878       -3.0074020445        5.3041365200
 O         -5.1511597855       -1.1768327568       -6.2298118655
 H         -4.4206711203       -1.4949582997       -6.8144583126
 H         -5.1348616698       -0.2133954204       -6.3037382194
 O         -1.8071447202        4.7357346257       -0.4609118636
 H         -1.0417863272        5.1525628860       -0.0192058039
 H         -1.9621770220        5.2056374971       -1.3029484249
 O         -0.6221866380        3.7175823200       -3.9831038321
 H         -0.2381705914        4.1735054379       -3.2072379171
 H         -0.2757284268        4.1883394005       -4.7582651322
 O         -1.9923385669       -7.1137220888        1.5753308261
 H         -2.8301274831       -6.7492295359        1.9088287869
 H         -1.3875355168       -7.1404319724        2.3372405045
 O         -6.6807619050       -4.2134786960       -3.6886833425
 H         -6.9139099825       -4.9053147172       -4.3074874689
 H         -5.7487173619       -3.9644602160       -3.8915186261
 O        -11.4027890315        3.3606936608        2.4078200207
 H        -10.9476983208        2.6033341894        2.8509125415
 H        -12.2640339576        3.4357044074        2.8164448358
 O          0.6298378618        4.9715424083       -1.9754211670
 H          0.5009006059        5.9059660244       -1.7594681992
 H          1.5827141952        4.8111945135       -1.9436598293
 O         -6.3107409979        1.3356135251       -0.5711046607
 H         -6.0399466851        1.9089165839       -1.3017736361
 H         -7.2262159669        1.0730054841       -0.7589229367
 O         -4.0342986378        0.6021087472        6.6819279402
 H         -3.8686117365        0.2077534074        5.7993739641
 H         -4.1521288193        1.5490580135        6.4821547087
 O        -11.4581363247       -2.4147972569       -0.7561731525
 H        -10.7487029742       -2.8426664931       -1.2957509342
 H        -12.2598791757       -2.9142288977       -0.9067369079
 O         -2.2760905921        2.2356234657       -5.9635023342
 H         -1.5246459779        2.3592227245       -6.5690212313
 H         -1.9056236093        1.6626807991       -5.2674276848
 O          9.3686921270       -3.9301722594       -1.3211389218
 H         10.1306081652       -4.0222699113       -0.7368194413
 H          8.8534722048       -4.7597391780       -1.2749607500
 O         10.6772292116       -0.4779018842       -2.8726998404
 H         11.5145510659       -0.4286003976       -3.3311285115
 H         10.2082022113       -1.3014238548       -3.2181853212
 O          9.2124225764        1.7123677928        3.1540364873
 H          8.9429012897        1.3466047286        4.0153081823
 H          9.2730115059        0.9217100653        2.5681930313
 O         -3.1472198847       -6.1203763906       -3.9468021500
 H         -2.6674899627       -6.8421283665       -3.5264175585
 H         -3.6094074120       -5.6545929174       -3.2353323802
 O          5.9128908805       -2.8098754509       -5.3248465436
 H          5.7174406500       -2.2437894974       -6.0878997118
 H          5.0861678970       -3.2487890343       -5.0899581846
 O          6.4196814878       -0.8322205180        3.3410906450
 H          7.1862638489       -0.5841691591        3.8767745551
 H          6.6499188299       -1.6504274464        2.8595411253
 O          2.7796092316        6.5254903109       -3.9130839296
 H          2.9247034408        5.6755726899       -4.4061954126
 H          3.0834050546        7.2231130477       -4.4938491097
 O          8.2536136872        0.2651936195        5.1875872850
 H          8.8274466954       -0.4871678968        5.3485974892
 H          7.4601602337        0.1552094566        5.7587864229
 O          3.2200130734        4.3809643104       -5.3593580449
 H          4.1712693806        4.1714486326       -5.3349810924
 H          2.7575525967        3.5257279615       -5.1908373808
 O          8.1810302430        6.4373027060       -1.8373952491
 H          8.5881180856        6.0800103717       -1.0325002401
 H          7.7380998454        5.6862499879       -2.2624980365
 O         -6.7770147452       -5.0984713256        2.8308561142
 H         -6.8878180627       -4.3814344043        3.5121301680
 H         -7.0711465205       -5.8993744641        3.2647440604
 O          2.7910066618       -7.6181543729        2.4597017654
 H          1.9325583454       -7.3202099611        2.8138967125
 H          2.6350999834       -8.4781126066        2.0709319692
 O          2.5277449327        0.0994591929        7.6031025330
 H          3.1291525219        0.6592407141        7.0586147334
 H          2.9264578610        0.0340572121        8.4700438758
 O          6.1406180469       -4.7065732823        3.5163958031
 H          7.0817343933       -4.7178633015        3.6939794401
 H          5.6755519230       -4.6093823960        4.3801870042
 O          9.7805038115        3.5302304888       -2.1597487993
 H          9.3227390851        2.9409432747       -2.7794494510
 H          9.6273949736        4.4299381265       -2.4510601559
 O          0.5403719646        5.0389328996       -6.1074465707
 H          1.4958875890        4.9485855966       -5.9978301190
 H          0.2873367373        4.3420192223       -6.7302206928
 O          7.0605067887       -2.7890147241        1.5857847392
 H          7.3703167441       -2.2822403627        0.8072284876
 H          7.8223095704       -3.3329063718        1.8618980889
 O          9.3601456668       -2.5129060625       -3.6917735997
 H          8.4999791517       -2.0320291221       -3.7173737483
 H          9.3111887128       -3.1555667542       -2.9669278924
 O          5.8076872237        3.5685664258       -5.2379451775
 H          6.2259861459        2.7286196389       -5.4814984126
 H          6.2771004946        3.8743712295       -4.4525222916
 O          3.9794954971        1.5703896968       -7.1197279315
 H          4.1203450579        1.2990721651       -6.1939311554
 H          4.2135148497        2.4980790395       -7.1680321233
 O         11.2871727827       -3.3742690345        0.5919231200
 H         12.2005711349       -3.6082611686        0.7535658777
 H         11.2757754265       -2.4336094527        0.3286892475
 O          9.1802050922       -4.3175295058        2.2053500763
 H          9.9353703969       -4.0854172780        1.6466975268
 H          8.8973088190       -5.2241377031        1.9343998427
 O          4.8330870074       -5.8112795902       -2.7506481470
 H          5.0861243811       -6.3061031165       -1.9401072638
 H          5.6791519025       -5.5889638581       -3.1922638077
 O          5.5263279516       -7.3545993393       -0.6582258399
 H          4.7478278332       -7.9218483789       -0.6984254261
 H          5.5719847857       -7.0676833057        0.2773771804
 O          9.0620675272       -2.2233714969        3.9413382895
 H          9.2672751206       -3.0593451391        3.5009942278
 H          8.4371759365       -2.4562057104        4.6534042091
 O          0.1706735814        2.5078252012       -7.0819931487
 H          0.7269092071        2.3065607778       -6.2991248429
 H          0.4213533722        1.8471525328       -7.7326958772
 O        -10.0233714341        1.3396254159        3.5301808377
 H         -9.3457737894        1.9256257303        3.9342161107
 H         -9.6041990182        1.0565899213        2.6708016157
 O         -7.5336138775       -2.1920831076       -1.3404346439
 H         -7.9611400302       -1.3222972746       -1.2073261603
 H         -6.7330558789       -1.9966141542       -1.8749040755
 O         -8.6006985791        0.2546170701       -1.5055549651
 H         -9.5587040932        0.3353190286       -1.6082603411
 H         -8.2467389394        0.4331222118       -2.3997018789
 O        -11.1998257238        2.9043916367       -0.3141958674
 H        -11.3659163445        1.9471931278       -0.3220667762
 H        -11.3854414431        3.1862955522        0.5972226235
 O         -0.3034884144       -0.2826809420        5.3068128601
 H         -0.7726444680       -0.1921318900        6.1598177613
 H         -0.5436499013        0.5097410500        4.7859872914
 O         -5.9794384733        3.9090820092        0.4122584574
 H         -6.0246561303        4.4841628211        1.2045761904
 H         -6.8775423957        3.6040231504        0.2227083487
 O          7.3460566744       -2.7637788212        5.9918870846
 H          6.6229229577       -3.4023031627        6.0399369223
 H          7.0041501274       -1.9659475093        6.4114864973
 O          0.5902916411        2.0890996002        7.5548753077
 H          1.0979819616        1.2615513012        7.4855903890
 H          1.2324752216        2.7945325773        7.4282105636
 O         11.0838033545       -0.7807027629       -0.2259918959
 H         11.3616575599        0.1289046096       -0.0476973139
 H         10.8749103505       -0.7627630674       -1.1871635284
 O        -10.8342491008        0.4077843241       -3.0272791042
 H        -10.5848810937       -0.3976260404       -3.5425371249
 H        -11.7812709746        0.3683855696       -2.9008123137
 O         -7.6913643310        0.6955864900       -3.9936530822
 H         -8.4420780274        1.0145741323       -4.4960023438
 H         -7.5161273535       -0.2266398782       -4.2935191201
 O         -1.1778790653       -2.7295458914        7.1673707024
 H         -0.2505940199       -2.6027836024        6.8879579749
 H         -1.4224399620       -1.8865347248        7.5713889178
 O         -7.3896110811       -1.7912805348       -4.8448778857
 H         -7.1752451412       -2.5874061474       -4.3238362160
 H         -6.6652416875       -1.6696441371       -5.4850283322
 O          4.8874582939       -4.1184282319        5.7829468919
 H          4.0658342751       -4.6008846733        5.9467207564
 H          4.5901232388       -3.2004288656        5.6014270319
 O        -10.5382443799       -2.5000628782        1.8745277528
 H        -10.8841087450       -2.3808241172        0.9750346696
 H         -9.9319598306       -3.2486479183        1.7852059851
 O        -10.0918451396       -1.7997571763       -4.2908576482
 H         -9.2102285908       -1.7689722182       -4.6911372164
 H        -10.0385270137       -2.5072814934       -3.6282118432
 O         -9.0024335140        4.7749697163        2.0604494477
 H         -8.7923287602        4.0915837301        1.3710289866
 H         -9.9445898360        4.6615842231        2.2339800178
 O          6.0269650309       -0.2825616185        6.5442059482
 H          5.3992671293       -0.7523768289        5.9435417197
 H          5.5700113232        0.5256606129        6.7982416064
 O         -6.2656638925        5.4818088823        2.5647927620
 H         -6.0727860589        5.2172744019        3.4895016684
 H         -7.2170928465        5.6130237325        2.5323808881
 O         10.7083111035        3.5817330401        1.9957032422
 H         11.4413834874        3.8503122619        2.5480838344
 H         10.1740077652        2.9401923829        2.5105654509
 O         -8.5640117845       -4.2167537655        0.9669752154
 H         -8.3309715816       -4.6535423826        0.1290311065
 H         -7.9890285159       -4.5978388820        1.6557472808
 O          6.1398306757       -3.0795436865       -2.0755511515
 H          6.7943343609       -2.4761187471       -1.6776880681
 H          5.9435201922       -3.7204720945       -1.3456889271
 O          8.8851662650        5.0134975967        0.4247333807
 H          9.6086079727        4.6623466609        0.9586886412
 H          8.3913574274        4.2290971069        0.0910404237
 O         -7.6053156341       -5.3945064668       -1.3288625924
 H         -7.2037122944       -4.9038531647       -2.0667111037
 H         -6.9413231092       -6.0433845598       -1.0514558020
 O          4.2617948134       -1.6143057004        5.0645905642
 H          4.4548771020       -1.8215649555        4.1293195694
 H          3.4365372988       -1.1012319903        5.0488284729
 O         -6.4315082666        1.6975158888        2.2723793113
 H         -5.5967403348        2.1572829297        2.5166887072
 H         -6.4181442655        1.6068673847        1.3078421213
 O        -12.1101265783       -0.2691309467        2.5409339133
 H        -11.7315516799       -1.1583259983        2.5780790112
 H        -11.5462756865        0.2852278019        3.0964656746
 O          0.2161253175       -6.8896001103        3.2598557322
 H          0.1215327743       -6.7248497951        4.2017897840
 H          0.1528235076       -6.0055692442        2.8292242605
 O          7.9810405563       -6.2443067762       -1.5079275039
 H          7.8574760952       -5.9973365080       -2.4356099956
 H          7.1090302636       -6.5371026247       -1.2012723693
 O        -11.4016472808        0.1989663492        0.0132158374
 H        -11.4617407803       -0.6716490263       -0.4096615313
 H        -11.8165200173        0.0904068251        0.9000517538
 O         -4.8712868845        1.6134455388       -6.1094772121
 H         -3.9156342019        1.7864136272       -6.2452166256
 H         -5.2499648092        2.4809823881       -5.8929683751
 O          6.7777392292        1.0009652285       -5.5683026473
 H          7.0771065094        0.3370543281       -6.1900698694
 H          5.9461406065        0.6510305480       -5.1833171645
 O         -3.5687765857        5.0749991353        1.5180764988
 H         -4.2376515394        5.6973588275        1.1819805272
 H         -2.8848266307        5.0263216434        0.8195143379
 O         -2.3067993342       -4.2553402375       -5.7381204411
 H         -1.4542434207       -3.8650785868       -5.4866193620
 H         -2.4427089008       -5.0568182462       -5.2030132323
 O         10.9736990867        1.9961607578       -0.2522896220
 H         10.9413874449        2.5571942488        0.5395156175
 H         10.7771248441        2.5954941558       -0.9928180423
 O          0.5272560080        1.1902916817        0.1255365035
 H          1.3706348398        0.7051327644        0.0541796866
 H          0.0175444392        0.8203721536       -0.6113448846
 O          2.5605203948       -0.3049494789       -0.4818659434
 H          2.9778746203        0.1483096808       -1.2152655197
 H          3.0278545637       -1.1394339155       -0.3538967683
 O          0.6911704929        0.3101627931        2.5463128104
 H         -0.0246918219        0.0023417855        1.9813095275
 H          1.4867991248        0.1808139007        2.0291146616
