  117
       -193.22747197
 H         -3.0149617755       -0.3297713519        1.0753278237
 C         -1.9416486385       -0.3625790659        0.8963944696
 H         -1.4547278316        0.4269569703        1.4713510837
 C         -1.6662782581       -0.1430404074       -0.5882230564
 H         -2.0353401962        0.8413650381       -0.8646672735
 H         -2.1576759511       -0.8964648045       -1.2031419393
 O         -1.4912036654       -1.6312126460        1.3519941169
 H         -0.5150038621       -1.5918865420        1.4367221676
 N         -0.2148919058       -0.2011421156       -0.8242863373
 H          0.0095391265        0.0326518989       -1.8236549019
 H          0.1267550374       -1.1793215083       -0.6580184990
 H          0.2268300663        0.4918281967       -0.1793930392
 O          2.7206671948        0.3009077805        0.0395087948
 H          2.8304763671        1.2722679093        0.0532760257
 H          2.6973734019       -0.0126712016       -0.8951616273
 O          5.7615524900        2.1644703774        0.0212942464
 H          4.8900800325        2.5545695796        0.2449202283
 H          6.4121865280        2.8612801988        0.1112107187
 O          0.3781231434       -2.3827514631       -3.5745878132
 H          1.0144947911       -2.7004464384       -4.2149904616
 H          0.4386482487       -1.4077403168       -3.5774789707
 O         -3.7007544433        0.7477922490        3.7911915636
 H         -4.5738510755        0.8054001072        3.3755495075
 H         -3.1641647124        1.4490620093        3.3906674290
 O          3.2439160565        2.9272878089        0.4837444679
 H          2.6234628030        3.4099010420       -0.0871753683
 H          2.8696540940        2.9432810449        1.3844033867
 O         -4.8107951578       -1.8343702115       -0.3368738367
 H         -5.2417510256       -2.0439901115        0.5069597437
 H         -4.0653744933       -2.4528867831       -0.4078270170
 O          0.4444853134       -2.8166830384       -0.8642468877
 H          0.3784854932       -2.8244552962       -1.8358330227
 H          1.3415469049       -3.1055217470       -0.6629979946
 O          0.2917529099        1.9070840254        0.7336064413
 H          0.7485854776        2.1379244653        1.5529899329
 H          0.5732823220        2.5664360205        0.0693814389
 O          5.8674755417       -2.2580187901       -0.5661288547
 H          5.6324047273       -1.5363729089        0.0758679967
 H          6.6572558733       -2.6811494102       -0.2284655257
 O         -6.0855402357        0.5060823152        2.3332460443
 H         -6.0071374231       -0.4747287655        2.3161824698
 H         -6.9802130750        0.7095345301        2.6081012165
 O         -2.5874738677       -3.5157874866       -0.2743752816
 H         -2.0698893497       -2.9080737880        0.2933163434
 H         -2.4120542664       -4.4042802209        0.0343253630
 O          2.3070758605        2.1562784223       -3.2609371654
 H          2.4768586687        2.6868833395       -4.0404240018
 H          3.1941324472        1.8679295818       -2.9347801065
 O          1.8709921835        0.1930164553        3.7603020433
 H          1.0649811313        0.3289950730        4.2845348722
 H          1.5550956763       -0.3285035831        2.9878169775
 O         -2.2977778236       -2.3663082032       -2.7815243215
 H         -2.3310189624       -2.9811269624       -2.0339605259
 H         -1.4585535192       -2.5101740790       -3.2341169591
 O          3.2346771633       -3.1257227532       -0.5012318143
 H          3.1361072082       -3.2357052370        0.4611056310
 H          4.1878901378       -3.0087982742       -0.6357008953
 O         -5.6287428656       -2.1453080918        2.2818415435
 H         -6.1599120586       -2.8010077657        2.7342581085
 H         -4.7380778710       -2.1369388315        2.7420464255
 O          0.2689011049        0.3556857962       -3.4018928751
 H         -0.5200242517        0.8888977152       -3.6314466858
 H          1.0405686972        0.9511311039       -3.4170992420
 O         -2.0041890807        2.6541644823        2.6461280932
 H         -2.2617774875        2.7104729394        1.7033789373
 H         -1.8842559712        3.5537069677        2.9529235526
 O         -1.8946781266        1.9082236055       -3.7571134586
 H         -2.0984297443        2.2126956012       -4.6422872807
 H         -2.7680112399        1.6021823788       -3.3813059233
 O          1.2109136909        3.5667477665       -1.1843153723
 H          1.5700823099        3.0966754210       -1.9582303030
 H          0.3007879734        3.8367406213       -1.4425508740
 O         -4.2242806012        1.2334910406       -2.8368413612
 H         -4.5301140748        1.3242910386       -1.9274782562
 H         -4.4784954523        0.3149711007       -3.0945783940
 O         -4.8312653676        0.8653282096       -0.0861061819
 H         -5.3829898947        0.9009948245        0.7131236711
 H         -4.7713468646       -0.0889775304       -0.3002517817
 O         -3.1321763071        2.8986097397        0.1833628282
 H         -3.7162319692        3.6586567847        0.1425648731
 H         -3.7102193515        2.1099865207        0.0708041300
 O         -4.8003061670       -1.3338176404       -3.1382089435
 H         -5.1155989673       -1.5817103711       -2.2599777985
 H         -3.9234039508       -1.7446084101       -3.2162116828
 O          4.1990813083       -1.3454544024        3.4241422949
 H          3.5137433145       -0.7395947323        3.7462462846
 H          4.6577595800       -0.8912159175        2.6977975595
 O         -0.6862619311        0.8237241926        4.3716693032
 H         -1.4708573790        0.4675426711        4.7933745759
 H         -1.0043237467        1.4648921910        3.7203533101
 O          5.3444133973       -1.1583757315       -2.9812468670
 H          5.6065973642       -1.5893959588       -2.1420080037
 H          5.9272298746       -1.4903914166       -3.6643594298
 O          2.6535985289       -1.0349315485       -2.2129338733
 H          3.4760125954       -0.9625154375       -2.7132157219
 H          2.7474988129       -1.8516228694       -1.6911981444
 O         -3.3129779105       -1.9167121949        3.4492992502
 H         -2.5939489850       -1.9501406350        2.7996983381
 H         -3.3860202451       -0.9787659671        3.7168149939
 O          2.8832187453       -3.2337791660        2.2050397421
 H          3.4525489874       -2.5839991236        2.7093909453
 H          2.7753028550       -3.9990247095        2.7693502509
 O          1.9607925608        2.6512623962        2.8463725947
 H          2.0235060524        1.7289278494        3.2129256878
 H          1.9069637093        3.2387969573        3.5997462548
 O          1.1772863534       -1.2335929213        1.6036881674
 H          1.7338105968       -0.6917229588        1.0078261965
 H          1.6749873933       -2.0533649975        1.7756971671
 O          4.7349170563        1.4884194419       -2.4776574363
 H          5.1573710831        1.7163751449       -1.6342006045
 H          5.0363677213        0.5970138321       -2.7090025445
 O         -1.3446173905        3.7792930895       -1.8217177503
 H         -1.8998933025        3.4673351271       -1.0927492326
 H         -1.5256236641        3.1835391435       -2.5699900133
 O          5.0998804580       -0.3027744362        1.0227430952
 H          5.5720194546        0.5161207556        0.8058187501
 H          4.1800417717       -0.1473648930        0.6934105336
