  462
       -779.02999292
 H          0.2479368119       -1.7794868182       -0.2347299911
 C          0.6748203518       -0.7818775496       -0.1419668728
 H          0.6352589690       -0.2988694413       -1.1102216119
 C          2.1227153598       -0.8671365135        0.3114887584
 H          2.7130911711       -1.4186675997       -0.4146872423
 H          2.1992458759       -1.3643430046        1.2734766459
 O         -0.0943459175       -0.0548253695        0.8015995837
 H         -0.4344263265        0.7902802812        0.4219662623
 N          2.6633627264        0.4902899153        0.4556170368
 H          3.7085135029        0.4071640825        0.5749402560
 H          2.2524070347        0.9420963894        1.2881650858
 H          2.4803887244        1.0724348209       -0.3891188206
 O         -1.4912358212        0.6600841441       -4.7514809789
 H         -1.1110102485       -0.1452406685       -4.3716650988
 H         -1.8058058366        1.2113813086       -4.0206722295
 O          7.0534169956        3.3701518335        2.1371717180
 H          7.4261752583        4.2187468616        1.8506036231
 H          6.9054633012        2.8612226560        1.3312931197
 O         -0.0180252242        0.7081834311        4.8327486087
 H          0.2297169149       -0.0483372430        4.2429620340
 H         -0.8952441129        0.4918224503        5.1716179923
 O         -5.2808699590       -0.3209258088        0.6067116755
 H         -5.9845468980       -0.9440968144        0.3740813256
 H         -5.7437979032        0.4126831720        1.0525856111
 O          2.0283503696       -2.6464686246       -2.8905238577
 H          1.9192271418       -3.0416816818       -2.0103586210
 H          1.1642695966       -2.2493155208       -3.1537839388
 O         -2.2069898739       -3.9762926172       -4.9284302819
 H         -1.6507142552       -4.6793992515       -4.5670880768
 H         -2.3539834015       -3.3231234366       -4.2164946515
 O         -0.8557176481       -3.8456276448       -2.0404099173
 H         -0.6201727389       -4.5472634207       -2.6600292173
 H         -1.7087245837       -4.1388503193       -1.6545097051
 O          1.6588890279        0.1250207674       -5.2380371973
 H          2.3900211563       -0.4821989013       -5.0161343280
 H          1.2548949881        0.4090012933       -4.3945465967
 O         -3.3749013077        2.2509092346       -6.3698819163
 H         -3.9021014982        2.0077985066       -5.6002835344
 H         -2.8752260045        3.0393359760       -6.0887944777
 O         -4.2492972403       -2.3006357838        2.2434167681
 H         -4.5200997249       -1.5251304542        1.7203683924
 H         -4.4234461889       -3.1004941597        1.7079549657
 O          1.9398181005        3.0481179938        1.3597636627
 H          2.8193770443        3.0915612780        0.9420943728
 H          1.3273676762        3.6425013396        0.8799751842
 O         -7.8265939041        0.0776175610       -3.8533958779
 H         -7.5533225137       -0.4507316122       -4.6330286027
 H         -7.0301222336        0.1054317195       -3.2912917595
 O        -10.1598952360       -2.4063007242       -0.1333570286
 H         -9.6207381362       -2.2492300063       -0.9334179704
 H         -9.9005974124       -3.2911718619        0.1648351885
 O          9.1889801105       -1.5979349152        4.0530352009
 H          8.7375199690       -0.7415181549        4.0492465485
 H          9.8979365370       -1.5203994817        3.4008437527
 O         -2.4358104300       -0.1299085832       -7.2091911460
 H         -2.7767628501       -0.1758368236       -8.1018144569
 H         -2.6187504463        0.7839059192       -6.8856940690
 O          2.8820891633       -1.5529331485        3.8449070011
 H          2.5103736635       -0.6975968865        3.5361548520
 H          3.1944415709       -1.3646406261        4.7574707081
 O         -0.2931743455       -1.7617677306       -3.7437429196
 H         -0.7570586284       -2.4289568361       -3.2127922136
 H         -0.3333654923       -2.0097334239       -4.6897425710
 O         -1.2279366553       -3.4446775878        1.0104147621
 H         -1.3604345654       -4.3932060926        0.8296719695
 H         -0.4477805275       -3.3782521901        1.5661004124
 O         -3.1001757432       -4.9461272154       -1.1760460533
 H         -2.9011192744       -5.4224730722       -0.3660043195
 H         -3.7065264106       -4.1976060235       -0.9636736796
 O          0.2810912913       -1.2395855638        3.1018420448
 H         -0.6017149338       -1.6283846881        3.2890818952
 H          0.1675577754       -0.7251672995        2.2737064602
 O          0.0791879786        3.4779727069       -2.0751894530
 H          0.6858027695        3.9132197935       -1.4571032750
 H         -0.1658882914        4.1866767634       -2.7045939473
 O          2.2407724380        3.0978681623       -4.1746588775
 H          1.4439418077        2.8503134623       -4.6879527790
 H          2.1586478192        2.6756729287       -3.2972974309
 O          2.3433567362        0.9426601622        3.1611285995
 H          2.0169947865        1.5358404565        3.8644559743
 H          3.2977059520        1.1310452608        3.1001818378
 O          0.6119267085        0.9536941687       -2.8753692846
 H         -0.1992387001        0.4585772373       -2.6562383767
 H          0.4185764838        1.8804494222       -2.6425513619
 O          4.5498593386        3.0307781864        0.6847112605
 H          4.8232121450        3.9619319473        0.5506864931
 H          4.8989517430        2.5527083277       -0.0827315081
 O          3.5366266036       -4.4955790777        3.2783651933
 H          4.3746341451       -4.4282074065        2.7865137482
 H          3.7261775064       -4.2235528792        4.2001207080
 O          4.8954837622        2.8304168148       -4.2510945091
 H          5.0811387639        2.0467395494       -4.8145904040
 H          3.9263479068        2.9459659646       -4.3144691314
 O         -2.5656809858       -1.2928374995        0.2856894201
 H         -2.0488330758       -2.0578178949        0.6003799232
 H         -2.0771998130       -0.9126034227       -0.4738863854
 O          1.3664609786       -3.4704896342        2.1490667341
 H          2.2128069382       -3.7514494753        2.5585529128
 H          1.1080193634       -2.6391891546        2.6084182352
 O         -8.5781253359       -4.5477046769        0.5766998676
 H         -8.2718168572       -4.7657638936        1.4650934794
 H         -7.9617605835       -4.9755132030       -0.0516584050
 O         -7.8206866660        0.2039214979       -0.5085302175
 H         -7.9765555729       -0.5549259289       -1.1033835715
 H         -8.0917528922       -0.1095413170        0.3826261869
 O          7.4143302925        0.6255404478        3.3269683600
 H          7.9984725385        1.3338563465        3.0259378613
 H          7.4444655825       -0.0593998585        2.6185776826
 O         -6.8413568922        0.9059123510        6.2280723792
 H         -7.5094743771        0.7998986588        5.5362186291
 H         -6.3235059448        0.0877239508        6.2609915619
 O         -5.3665818175        7.0169466285       -1.1876953921
 H         -4.5234426143        6.9478502270       -0.6742323672
 H         -5.6464677853        7.9297363627       -1.1415838321
 O          1.4831396921        0.5240990036        7.0017153667
 H          0.9955558900        0.6965406375        6.1595334110
 H          1.5723950963        1.3712065931        7.4372966619
 O          4.5904425119        2.4328937482        5.5573643904
 H          5.1333418780        1.8288227617        6.0727061028
 H          4.6879903850        2.1279422292        4.6291345100
 O          2.9582338926       -6.0319234969       -0.6610287953
 H          2.4466474346       -5.1887781463       -0.6912397518
 H          2.8132067870       -6.3742060661        0.2508071909
 O          6.1184909161        0.0985543029        5.8107401789
 H          6.3277321833       -0.8547211038        5.7934177071
 H          6.5487275918        0.4391897253        5.0137220084
 O         -0.3105411147       -5.8358299721       -3.8732187054
 H         -0.5241419994       -6.5914706705       -4.4203648726
 H          0.5574381676       -5.4560354269       -4.2051402391
 O          1.3714340067       -3.9329780939       -0.5654562881
 H          1.3377162231       -3.7227411901        0.3820762975
 H          0.4566992687       -3.9669337308       -0.9168966050
 O          4.9100808935       -3.2450768699       -3.1773765075
 H          4.4998281693       -3.1150193368       -2.3010422748
 H          5.8339689025       -2.9625616409       -3.1036656533
 O         -3.6691053678        1.1954766751       -0.9170951068
 H         -4.4861787451        1.6732616981       -1.1796586137
 H         -3.9679190308        0.5526468362       -0.2573165114
 O         -2.6463250931        0.6147029779        2.1566895612
 H         -1.7990292732        1.0828086060        2.2348479665
 H         -2.5327896034       -0.0861862522        1.4815366855
 O         -3.1452017327        6.5278065209        0.1645194117
 H         -3.0900666325        6.5608139059        1.1399013722
 H         -3.1167993005        5.5670094718       -0.0775407970
 O          8.1660210268       -3.7292802908        2.5838238284
 H          8.8092827263       -3.9725732243        1.8927613495
 H          8.6542718305       -3.2468404903        3.2666863236
 O          5.6173109610       -5.9617248877       -0.3835932649
 H          5.8461105579       -6.8835434877       -0.2657395343
 H          4.6497976137       -5.9494628944       -0.5801431817
 O          3.1694958013       -0.2513901223       -2.5792191173
 H          2.8559827941       -1.1590091649       -2.7470586539
 H          2.3914032307        0.3189942533       -2.6199521353
 O          1.9246482827       -4.7332761058       -4.5371011732
 H          1.9973389258       -3.9272721198       -3.9695687957
 H          2.6964393299       -5.2794643800       -4.2645495631
 O          3.6107354323       -0.9633029586        6.3018001843
 H          2.9024379243       -0.3942511825        6.6603565112
 H          4.4282842281       -0.4420015197        6.2495811811
 O         -4.9627451783        0.2236084049        3.5030085130
 H         -4.0960800715        0.2962054523        3.0665186378
 H         -5.1751443363        1.1217511649        3.8317289723
 O         -4.9472956451       -1.1603455229        5.7724324426
 H         -5.0140812423       -2.1068422192        5.5591699444
 H         -4.9871680934       -0.6978883941        4.9032289565
 O          0.6143070442        7.6730843584        1.2429381359
 H          0.2076233797        7.1259777317        1.9258906220
 H          0.1627180165        7.4524793688        0.4047259559
 O         -2.8686360046        6.3845379682        2.8454503942
 H         -2.6611922387        5.4255423241        2.9448932400
 H         -2.1284878124        6.8474276725        3.2403127879
 O         -4.7554085706       -3.6379360403        4.5918220676
 H         -3.9311698275       -4.1214089823        4.7111813423
 H         -4.6549094325       -3.1311242938        3.7640592411
 O          8.5866693920       -0.2514497110       -1.7418648969
 H          8.2488200959       -1.0513330191       -2.1768344548
 H          8.6479242964        0.4450487528       -2.4263312354
 O          5.7876244381       -0.2835043093       -2.4863676484
 H          4.8226903635       -0.3785366817       -2.6352133166
 H          6.2368141566       -0.2653026274       -3.3481917446
 O         -0.5732807202        4.0097928281        5.3160596645
 H         -1.3371768016        3.4460210469        5.4969550152
 H          0.2123944503        3.4500271874        5.3763649188
 O          4.1826390552       -3.6328345949        5.7520037723
 H          3.8678670650       -2.8004177410        6.1350049642
 H          5.1325137466       -3.4889784434        5.6352949854
 O          0.1356112284        2.4715792905       -5.7354128128
 H         -0.4377287684        1.7289217977       -5.4027397074
 H          0.3872260049        2.2395061740       -6.6297861269
 O          2.6275039869        4.7730025934        3.2332320551
 H          3.5933530655        4.7309476554        3.4225423910
 H          2.4231254963        4.0585262993        2.5825313635
 O         -3.0667482761       -2.1440737730       -3.1600446855
 H         -3.7101017729       -2.4210231935       -2.4892397431
 H         -3.5522443614       -1.7005677622       -3.8910117169
 O          2.2902409264       -3.0512203006       -6.6824198949
 H          1.4280301939       -2.6241131853       -6.7841082602
 H          2.1436862813       -3.7990225209       -6.0794059895
 O         -1.2164992723        2.1296404172       -0.1292876472
 H         -0.8475259332        2.5268772148       -0.9378158059
 H         -2.1399240042        1.8998253270       -0.3317177691
 O         -6.5529434262        3.4667411552       -4.1043133736
 H         -7.3970935213        3.1870058624       -3.6721083465
 H         -6.7796118984        3.7402863885       -4.9929359756
 O         -8.4891366439       -1.8512090799       -2.1745763709
 H         -7.7880390839       -2.4827874356       -2.3937304554
 H         -8.4967676920       -1.1983263039       -2.9072113764
 O          6.5864636674       -2.4438800745        5.0187067826
 H          7.5393802050       -2.4237126658        4.8938965219
 H          6.1823450571       -2.1781802404        4.1615522016
 O          2.6637126825        2.2881367930       -1.5830700295
 H          2.5405491124        3.1985463346       -1.2536980014
 H          3.6243343789        2.1636031464       -1.6896114838
 O          4.0105342130       -5.8266409947       -3.3448979186
 H          3.6695781260       -5.9865281669       -2.4573453082
 H          4.4654169107       -4.9631206575       -3.3175342240
 O         -0.1014097285       -1.5703997047       -6.3875644786
 H         -0.8981220570       -1.1299308616       -6.7141439590
 H          0.5103744301       -0.8589177493       -6.1064888685
 O         -5.7449257603       -7.5222093268       -1.9441989829
 H         -4.9843828185       -7.2682047352       -2.5212711417
 H         -5.4913802150       -8.3258377876       -1.4919791206
 O          5.1929399032       -0.0453422810        0.6831269973
 H          5.9919735763        0.4887736929        0.5153696325
 H          5.3433748775       -0.5923191470        1.4733054999
 O          5.0641524288        0.6634578983       -5.8044516029
 H          4.6289722875       -0.1718385222       -5.5204310879
 H          4.4473731205        1.0475112637       -6.4577042239
 O          4.0690294110       -3.0473948865       -0.5771479294
 H          4.9579522337       -2.6527811219       -0.4507858435
 H          3.9914628496       -3.7501804543        0.0665672385
 O          2.3971934831        5.6657749893       -3.4027621762
 H          1.5036074933        6.0184292276       -3.5290792434
 H          2.3509686190        4.7654742024       -3.7909084911
 O          9.7694908432       -4.1500373318        0.4332506742
 H          9.0470638993       -4.2264248067       -0.2531043688
 H         10.3670201564       -4.8805217374        0.2774500064
 O         -2.8406312258        2.3586591349        5.4025713488
 H         -2.7361096918        1.4070199481        5.5467934018
 H         -3.7987759211        2.5096255979        5.3346191864
 O         -0.2066143906        4.5051892407        0.7192349906
 H         -0.3036746701        4.8534402518        1.6275296617
 H         -0.8130421707        3.7522595073        0.6140615156
 O         -0.4131363486        2.1692713482        2.6393617615
 H          0.4325313310        2.3288729025        2.2042516974
 H         -0.2118908956        1.7853137062        3.5139092767
 O          1.9658691363        2.8465524471        5.0560327664
 H          2.1081792953        3.6424493069        4.5083764201
 H          2.8262300142        2.6953390614        5.4838800143
 O         -0.3318571647        5.7278828735       -3.4496693773
 H         -0.6331770356        6.1960480071       -2.6474365750
 H         -1.0881831646        5.5393628524       -4.0286165904
 O          5.2044172910        4.5639378720        3.7771734517
 H          5.1860433234        4.0823057477        4.6130069051
 H          5.8324865370        4.0883585222        3.2020503549
 O         10.7971936849        0.3076422038       -0.3424256116
 H         10.0168370587       -0.0010381461       -0.8504521192
 H         11.1271143620        1.0707387813       -0.8395971868
 O         -1.2973277088       -6.1138454401        0.7242309866
 H         -0.7817428817       -6.4574600909       -0.0343838499
 H         -0.6927123823       -6.1415054029        1.4975603912
 O          5.6826867539       -4.2345935986        1.6884177326
 H          6.5688153913       -4.2154024049        2.0839279930
 H          5.7270415362       -4.8599439505        0.9405566463
 O         -0.6942325078        6.5951226650       -0.9089158207
 H         -0.4588483121        5.7569009612       -0.4571201788
 H         -1.6157673982        6.7627234769       -0.6344070844
 O         -2.4681654438        2.5638224199       -2.9859737817
 H         -3.3655853639        2.2790156566       -3.2426235575
 H         -2.5716887578        3.1029328779       -2.1854163352
 O         -4.4569865430       -2.7302114209       -0.8640292642
 H         -3.8406453888       -2.1524711139       -0.3580225500
 H         -5.3074007715       -2.7619582260       -0.3939825783
 O         -0.0421544435        5.5815087088        3.1894957845
 H         -0.3956812879        5.0653890637        3.9450962263
 H          0.9167649776        5.5152230768        3.2962485721
 O         -6.4690143252       -5.1358919190       -0.9917644502
 H         -6.2885229620       -6.0267545108       -1.3526094355
 H         -5.8302338607       -5.0004024121       -0.2637843278
 O        -10.5258672920        1.4733223045        2.0008283134
 H        -10.2676812960        1.8279786379        1.1288137034
 H        -11.4762312496        1.3585851662        1.9731748447
 O         -6.2076493690       -3.2740867361       -2.9383669205
 H         -6.2873275055       -3.9342819536       -2.2166372577
 H         -5.6611845830       -3.7167000592       -3.6135795803
 O          9.3743658693        3.9135951216        0.0566214344
 H          9.1808240004        4.7654612817        0.4640660126
 H          8.6241681400        3.7688771756       -0.5604634970
 O         -5.0151680212       -4.6541533621        1.2452764640
 H         -4.4094384699       -5.2782930355        1.7024519483
 H         -5.8011076533       -4.6009340082        1.8293798160
 O         -4.7442609660        1.4770020532       -3.9337942792
 H         -5.4356575660        2.1701198372       -3.9558322845
 H         -5.0225871809        0.8532841738       -3.2398691634
 O          7.6528125567        5.8504356334        1.1174550206
 H          6.8002496380        5.7959190225        0.6354110784
 H          7.5491923974        6.5471672542        1.7659799681
 O          7.4305038088        3.7384084517       -1.7833678906
 H          7.0071534401        4.5392203750       -2.1042539013
 H          6.6985419882        3.1073704943       -1.5852551352
 O          5.0689543991        5.2429491182       -2.7598233904
 H          4.2334781684        5.6643926282       -3.0077669774
 H          5.1503511858        4.4923149421       -3.3653416297
 O         -1.9186510181       -4.5872596833        4.5365198597
 H         -1.9054353255       -3.6576542765        4.1884071938
 H         -1.5009257966       -4.5438844690        5.3979098513
 O         10.4385671089       -1.6659386641        1.4915077685
 H         10.8604646861       -1.0493098798        0.8771765719
 H         10.3889351612       -2.5253337110        1.0429841787
 O         -3.1857364375        4.0444013098       -0.7130993313
 H         -3.6645703136        3.5097629262       -0.0481054202
 H         -3.8201009541        4.2963222939       -1.4187559893
 O          4.9050393005        1.6318189957        3.0099723544
 H          5.8040870183        1.2553764902        3.0626800171
 H          4.8818292475        2.2055981801        2.2222639327
 O         -5.2861239396        5.0157325775        2.3386158397
 H         -4.7122595511        5.6978328351        2.7007312333
 H         -6.0251068757        4.8773313870        2.9436465569
 O         -6.8509531717       -2.4425262027        0.4433708749
 H         -7.5402214632       -3.1103451577        0.2987147999
 H         -6.8521923304       -2.2750598178        1.4077965540
 O         -4.2201206839        2.6504257263        1.3728111891
 H         -3.6585064767        1.8699984737        1.5681788563
 H         -3.9332417801        3.3225381674        2.0144258700
 O         -9.8294547503        1.8784946986       -0.6787685825
 H         -9.0417326869        1.2733900372       -0.6547043817
 H        -10.5905825745        1.2828009109       -0.7790387626
 O        -11.6863542493       -0.1155097682       -0.4420121372
 H        -11.2414633140       -0.9682718459       -0.3007578073
 H        -12.4428527487       -0.2954547112       -0.9995992283
 O         11.0629261626        2.7164571614       -1.7021010675
 H         11.8326695457        3.2511067406       -1.8951066354
 H         10.5289720565        3.2115537229       -1.0464251427
 O          7.6107460697       -2.3492206721       -3.3360325243
 H          8.1357545024       -3.1204259730       -3.5509277992
 H          7.6255334163       -1.7336263363       -4.0858805569
 O          7.3367883904        1.3683467769        0.0562430088
 H          8.0745679016        1.3905734825        0.7007816815
 H          7.6558510626        0.7786160292       -0.6493075164
 O         -2.4879514315        3.7766960200        3.0598065554
 H         -2.7086616773        3.4062611573        3.9274751936
 H         -1.6740124232        3.3003545771        2.8002260511
 O         -2.4128468483       -0.4140924279        5.7351268119
 H         -1.7883501361       -0.9106787145        6.3114010976
 H         -3.3277908435       -0.6828273730        5.9810409727
 O         -1.7002762215       -0.1852700875       -1.9872329322
 H         -2.1174270722       -0.9156867588       -2.4880656000
 H         -2.3998541796        0.4765750022       -1.8333709696
 O          7.4019312231       -0.0196998944       -4.7189464578
 H          7.9317923509        0.7564004847       -4.4956802789
 H          6.7060659514        0.2704784458       -5.3340667610
 O         -7.6018832298        3.9898070534        3.5894764744
 H         -8.0045143229        4.0740422204        2.7133969372
 H         -7.9783997811        3.1660161486        3.9454669115
 O         -6.1789363551        4.6207512675       -0.1638131760
 H         -5.7384273399        4.7003759548        0.7069298858
 H         -6.0385819084        5.4727723057       -0.6064878455
 O         -2.0934209757       -2.1107424220        3.6895289679
 H         -2.8361329071       -2.1047460803        3.0433219071
 H         -2.3044061073       -1.4552095381        4.3879086903
 O          7.8090420457       -4.3716514284       -1.2829798991
 H          7.3689619964       -3.4970213036       -1.1837288128
 H          7.1152722120       -5.0149163343       -1.0866739395
 O          0.0918204478       -5.7191048443        2.9564607244
 H         -0.5754341281       -5.4560246101        3.6101638764
 H          0.5881310187       -4.8999087810        2.7544007914
 O          6.5268726538       -2.1243310225       -0.7057532332
 H          6.9593807161       -1.6838414666        0.0481477543
 H          6.3020771125       -1.4219069426       -1.3495385969
 O          3.7843430520       -1.5659493710       -5.0591264349
 H          4.1316561368       -2.1905470132       -4.3958603780
 H          3.3524681700       -2.1162007297       -5.7520770330
 O         -8.2622414524        1.3069975098        3.8381722598
 H         -7.6141771200        1.3114838210        3.1023016560
 H         -9.1294187400        1.3541223156        3.4239369120
 O         -9.0317184644       -0.7422014776        1.6561419575
 H         -9.5082548646       -1.4107067678        1.1240299627
 H         -9.6648186778       -0.0344940479        1.8676258827
 O          2.1951123605        4.7929715888       -0.8886433997
 H          2.4169587395        5.4324697384       -0.1804367335
 H          2.2949119934        5.2623075016       -1.7423707906
 O          5.2372133255        5.5055145248       -0.0429502909
 H          4.4957315108        6.0341872788        0.3013020355
 H          5.1442245352        5.4682218325       -1.0141715940
 O          2.5585860887       -6.6579450100        1.9001566360
 H          1.6573146621       -6.7411171199        2.2296874326
 H          2.9705220888       -5.9887625087        2.4736264577
 O          9.4715222000        1.6371600313        1.6327714940
 H         10.0775693101        1.1115475097        1.0760086999
 H          9.5523999939        2.5500013246        1.3121984391
 O         -6.6756050667        1.7299059529        1.7001129097
 H         -7.3337361088        2.3633771799        1.3581788867
 H         -5.8186559656        2.2114775971        1.6898072649
 O          8.8529333947        1.9505344613       -3.2799828144
 H          9.7499472467        2.1607804207       -2.9838990428
 H          8.2910394807        2.6235784573       -2.8489787358
 O          5.2757453191       -1.7597349263        2.7589015334
 H          4.3610510527       -1.7082621000        3.1299431623
 H          5.3157841422       -2.5759221182        2.2393555897
 O         -6.7194124595       -1.7540383587       -5.4387977623
 H         -6.7498344509       -2.4520281958       -4.7767287351
 H         -5.7832031277       -1.4835338023       -5.4901612602
 O          7.7996315921       -1.2485721944        1.4805083749
 H          7.6466166714       -2.1024735228        1.9243949703
 H          8.7727138360       -1.2132920403        1.3721571717
 O         -4.7776832371       -4.4826607499       -4.9191766750
 H         -3.8164679962       -4.2621290753       -5.0391734167
 H         -5.1712660249       -4.4868559322       -5.7909353538
 O         -3.7077594483       -6.5243709733       -3.3202220055
 H         -4.1559016716       -5.9266019388       -3.9364333269
 H         -3.4019041262       -5.9641605264       -2.5840493977
 O          1.0884312087       -3.2332405421        5.1548446389
 H          1.6159541239       -2.6116116426        4.6185482762
 H          1.7268879795       -3.8032098079        5.5871449545
 O         -5.6092797281       -0.6008750546       -2.3925356606
 H         -5.7249129749       -1.5577472716       -2.5335863230
 H         -5.4330230631       -0.4736477094       -1.4531661606
 O         -8.4012341820        3.6651357521        0.8957885639
 H         -7.7001086296        4.1470761261        0.4082665249
 H         -9.0165250395        3.3217715436        0.2376052325
 O          2.9026834046        1.8418463101       -6.8941063606
 H          2.8324186127        2.7051832889       -6.4820834809
 H          2.3854181084        1.2247179181       -6.3317426140
 O         -4.5785229672        4.8493678245       -2.7960144710
 H         -4.9162156958        5.7141481446       -2.5388599813
 H         -5.3086986272        4.3668906020       -3.2141548659
 O         -4.1480532258       -0.8920194802       -5.2310586928
 H         -4.3160815844       -0.0036313306       -4.8749022945
 H         -3.4701760042       -0.7725958877       -5.9244614548
 O          5.3289413713        2.1560192422       -1.7800432152
 H          5.2050376936        2.4360899420       -2.7249619502
 H          5.5873289000        1.2051417727       -1.8475890789
 O         -7.0121376039       -4.3637983208        3.0300835514
 H         -7.0731120168       -3.3960180560        3.1393998934
 H         -6.5280609823       -4.6539800429        3.8106164510
 O         -6.9283975194       -1.6439022811        3.0273690136
 H         -6.2449505226       -0.9652003509        3.1723856451
 H         -7.7547690291       -1.1786703463        2.8219346598
 O         -0.3808890375       -1.6901412921        6.8662385868
 H          0.0980259692       -2.2669248750        6.2386050410
 H          0.2654683886       -1.0408872724        7.1694444373
 O          2.9361847641        6.4408467007        1.0652045159
 H          2.1728683336        7.0663701837        1.0888720114
 H          2.8930901944        5.9678229120        1.9170193662
 O         -1.8955925537        4.1769757321       -5.0574964694
 H         -2.1391385600        3.6704714820       -4.2521612409
 H         -1.0762892536        3.7606876055       -5.3718263063
 O          0.2775855323       -6.8411079991       -1.3178189116
 H          0.0452074574       -6.5700882220       -2.2184748128
 H          1.2344938202       -6.7426490240       -1.2240255684
 O         -5.4378194145        2.5531799834        4.7265745247
 H         -6.0471078211        3.1902104154        4.3307884648
 H         -5.9557671271        2.0711506485        5.4162208374
 O         -3.3193306504       -6.1725244596        2.5820799637
 H         -2.8746548241       -5.7254839781        3.3132222727
 H         -2.6312825966       -6.3927264319        1.9372502356
 O         -6.0405513755        2.2012570172       -1.4553079923
 H         -6.1239104593        3.0684187010       -1.0272466037
 H         -6.6740493950        1.5995624048       -1.0408406710
 O         -8.8545742716        2.5338259207       -3.2396947121
 H         -9.2445515827        2.4541355597       -2.3565562867
 H         -8.6424535198        1.6289853184       -3.5275802745
