  192
       -320.54306546
 H          0.9570664699       -0.6922737497       -1.1242827980
 C          0.9007609041       -1.7061660409       -0.7237850324
 H          1.1158622348       -2.4179799182       -1.5221267691
 C         -0.4864027347       -1.9664518827       -0.1784058189
 H         -0.4663995879       -2.8641024887        0.4362638398
 H         -1.1819986934       -2.1147773228       -1.0012691789
 O          1.8330773936       -1.8634725313        0.3354110070
 H          2.7206719664       -1.6251916313       -0.0242632694
 N         -0.9491377095       -0.8370147738        0.6422962328
 H         -1.8480332209       -1.1324176683        1.0874896786
 H         -1.1274046355       -0.0182284818        0.0227595978
 H         -0.2615535099       -0.5672184948        1.3863283751
 O         -2.2047427260        4.2438983408        2.5725389023
 H         -1.5641906165        4.7194922705        2.0166030952
 H         -1.7570226050        4.0229829235        3.4053614453
 O          7.2704486731       -0.5911199281       -2.1829536844
 H          8.1784271556       -0.3137171925       -2.3060341443
 H          6.8261870851        0.1194733404       -1.6503995449
 O         -6.6998052871       -1.4073519236       -0.9994888777
 H         -6.2857076698       -1.1378986993       -1.8280414881
 H         -7.1717545399       -0.6214176453       -0.6635389455
 O          1.7778633920       -3.9560260084        1.9526337764
 H          1.6929413379       -3.2433804794        1.2749496233
 H          2.7275934763       -4.1193727305        2.0142112718
 O          0.3574196840        1.7764337401        0.6060600331
 H          0.7464957844        2.6280641843        0.8914706561
 H          0.4855766482        1.7145928890       -0.3633828420
 O          0.4381367209       -0.0567136764        2.8414261921
 H          0.9139819612       -0.7957217051        3.2752511305
 H         -0.3716935244        0.1115041424        3.3709645733
 O         -1.9855738479       -4.4921639438        0.8197634288
 H         -1.5718962948       -4.8923997319        1.5989470502
 H         -2.8953184216       -4.8758066008        0.7436119639
 O         -0.4548916248        5.2653978812        0.7102932756
 H         -0.2646907084        6.1870227405        0.5391364235
 H          0.3776114213        4.8504121923        1.0298155113
 O         -5.5475409979       -2.5390834586        1.1513242083
 H         -5.9525557020       -2.2304847737        1.9732010108
 H         -6.0033451263       -2.1061081062        0.3985980591
 O          6.0245167894        1.1516500948       -0.6589078371
 H          6.3910750179        2.0107104282       -0.3059260252
 H          5.1260031943        1.3600268486       -0.9771211307
 O          1.0824891403        1.4567776433       -1.9227103178
 H          0.5468410933        2.0908464890       -2.4472118209
 H          2.0124774556        1.7676431382       -1.8792955463
 O         -0.4311494602       -5.1065606068        3.0177257059
 H         -0.2288338200       -5.9473622440        3.4287892447
 H          0.3942870626       -4.7702274012        2.6189005986
 O         -4.5355022905       -5.0965967301        0.6045325287
 H         -5.0042150811       -4.3529766711        1.0146586581
 H         -4.6257224811       -4.9299583296       -0.3484033195
 O          4.4310623103       -3.3641928274        1.8523574110
 H          4.1916152979       -2.4293847742        2.0797043550
 H          5.3362642916       -3.4784598232        2.1455493084
 O         -4.1823812329        4.1565131530        0.5418239543
 H         -3.7021681971        4.3873005330        1.3450627024
 H         -5.0799643695        3.9008502521        0.8446251070
 O          4.1669533347        1.8355536464        3.7044459198
 H          4.1122917183        0.8893726764        3.5061891324
 H          3.2641693571        2.0977059721        3.9418648121
 O         -2.1870673799        1.3520647168       -4.7899992707
 H         -3.0925956972        1.5334416978       -4.4955450030
 H         -1.6257240378        2.0287581278       -4.3808650914
 O         -0.8313655520       -4.6480081415       -1.7975280126
 H         -1.2008409244       -4.6726735054       -0.9009851581
 H          0.1196040431       -4.5249927349       -1.7262153867
 O         -7.9416629154        0.6837005310        0.2269055880
 H         -7.4851777353        0.6433783252        1.0971606449
 H         -8.8807758651        0.6236989149        0.4005424178
 O          3.9897509555       -0.8381754023        2.5883087937
 H          4.9070325340       -0.6464031277        2.2774318487
 H          3.4267067289       -0.3177043910        1.9685107896
 O         -4.7476560784        1.6559916390       -3.7833582117
 H         -5.4439997959        2.0846721575       -4.2812087804
 H         -4.8883108326        1.9119962860       -2.8313801942
 O          2.6081692485        4.5274802145       -1.5665073255
 H          2.2090574408        4.5726195108       -2.4557991805
 H          3.1092238309        5.3316838266       -1.4348528066
 O          2.9023905986        0.8196026337        0.8400818901
 H          1.9373493155        0.9625794598        0.8219861484
 H          3.1772371377        0.4106907194        0.0066268965
 O          5.5130324110       -0.6184435030       -4.3094875892
 H          6.1781295638       -0.7200701482       -3.6078896896
 H          4.7582978509       -1.1766012539       -4.0623611188
 O          1.5855224414        3.9199459017        1.6580969291
 H          1.5364492050        3.4529653864        2.5226437069
 H          2.5298135842        3.8634629606        1.3989515754
 O         -3.0014270311       -2.1589385852        1.6617566708
 H         -3.9404465550       -2.2035029189        1.3684280732
 H         -2.6095103776       -3.0201072528        1.3937427250
 O         -1.2087431704       -0.6707498542       -3.4046630287
 H         -1.6183433207       -0.0641596886       -4.0613769227
 H         -1.6996987420       -1.5144182280       -3.4363304658
 O         -5.2261452972        2.2563868292       -1.3021549438
 H         -4.9284459707        3.1113148726       -0.9770923837
 H         -5.0201542274        1.6218027653       -0.5815306771
 O         -1.0061286939        3.0680877365        4.8063180899
 H         -1.3833572175        2.1772443395        4.6268697202
 H         -1.2385984542        3.2924908444        5.7072732802
 O         -1.8520598081        0.6846056503        3.9720274239
 H         -2.4573414734       -0.0597087201        4.1784043111
 H         -2.1161273930        1.0308521688        3.0878360554
 O          1.4334282758        2.3027530330        3.7597076575
 H          0.6679888487        2.6271323762        4.2600542707
 H          1.1414860042        1.4665731972        3.3362072099
 O         -5.0244054388       -0.9619129091       -3.3058782529
 H         -4.5661520371       -1.5018345487       -3.9538339904
 H         -4.9315829588       -0.0256568048       -3.5867344482
 O          6.3293758910       -0.4332584682        1.4522710834
 H          6.5755114947       -1.2582691457        1.0183332718
 H          6.1598955418        0.1916430350        0.7058987320
 O          4.0005054890       -1.0104420730       -0.8838872760
 H          3.7935742392       -1.2653019243       -1.8099854425
 H          4.8336176899       -1.4562096641       -0.6533883478
 O          3.2939042562       -1.8922869797       -3.2868802215
 H          2.8690100826       -2.7409255801       -3.0853838471
 H          2.5810295899       -1.3060602008       -3.6367465930
 O         -0.9134609273       -2.8467954784        4.6293274604
 H         -0.8602356032       -3.6637664556        4.1114856630
 H         -0.0129992948       -2.5152704663        4.7028494740
 O         -6.6030735108        3.1996940683        1.2336131057
 H         -6.5672081369        2.5360905288        1.9344761240
 H         -6.9631995253        2.7416760730        0.4648035380
 O          2.1725765084       -4.2513655090       -2.2589929423
 H          2.2030046850       -4.9842865491       -2.8758656261
 H          2.9266416488       -4.3569671935       -1.6458503324
 O         -3.5609830595       -1.1221872041       -1.0641791829
 H         -2.8580183447       -0.4671922216       -1.2187564797
 H         -4.1244862338       -1.0596504932       -1.8616933223
 O         -3.2687941056       -1.5589175099        4.2189376322
 H         -2.5674763370       -2.0718372872        4.6541419024
 H         -3.1634452741       -1.7936639691        3.2662550322
 O         -0.6356450966        3.0598361201       -3.2114236455
 H         -1.1723072446        3.4460339993       -2.4977919438
 H         -0.0362263477        3.7449101030       -3.5499129288
 O          2.2515584834        2.1484835796       -5.1024484557
 H          3.1910269902        2.0232671729       -4.8834539943
 H          1.8221466708        1.2977498517       -4.9092512128
 O          4.8015343430        1.8768019177       -4.1603152695
 H          5.5151918452        2.3841927640       -4.5466041515
 H          5.0534350064        0.9142208600       -4.2646771542
 O         -2.4974223361       -3.0482557210       -3.3226665606
 H         -1.8475706665       -3.6680840196       -2.9511631573
 H         -3.3336892566       -3.3105732559       -2.9086824678
 O         -2.1516133346        1.7630803793        1.5817419638
 H         -2.3140895023        2.6864694126        1.8692460257
 H         -1.2514672296        1.7702091352        1.1930623559
 O         -4.4320311694        0.6353259156        0.6964375164
 H         -3.6008190377        1.0626822115        0.9733686354
 H         -4.1864836393       -0.1443240781        0.1523368447
 O          6.9328225448        1.9676284174        2.8604530137
 H          6.1270194022        2.0649281412        3.3814894825
 H          6.9385242975        1.0554594655        2.5441008399
 O         -5.9578414088       -1.6924168495        3.8048387417
 H         -5.0167847491       -1.6389709302        4.0706298889
 H         -6.4283858712       -2.0987821078        4.5326150919
 O          4.1039056344        3.1720690798        1.3110411334
 H          3.7654904413        2.3387841403        0.9233588736
 H          4.2862736929        2.9181331326        2.2349569045
 O         -1.9461626102        3.5979372672       -0.9160364959
 H         -2.8219471032        3.7545149305       -0.5185181230
 H         -1.3446210818        4.1498632093       -0.3898706366
 O         -1.7543899536        0.8647183876       -1.2604035587
 H         -1.3898194588        0.5713781822       -2.1157982582
 H         -1.8287138450        1.8334020935       -1.2383967821
 O          1.5272205609        4.4315958553       -4.0790455283
 H          1.7995724017        3.5560260972       -4.4787501431
 H          1.5700316927        5.0664559847       -4.7941818812
 O         -4.6981028591       -3.5942975091       -1.6670477420
 H         -5.6105344903       -3.3133576792       -1.7751186175
 H         -4.2652756668       -2.8810738640       -1.1714793165
 O         -6.4319629184        0.6670129245        2.4471432332
 H         -6.3764639939       -0.0993500356        3.0366363450
 H         -5.6335277971        0.6209712293        1.8783275613
 O          1.8114715192       -2.0682434897        3.9194529858
 H          1.7491264501       -2.7980496048        3.2709648454
 H          2.6803010532       -1.6703249256        3.7793074619
 O          4.3360500748       -4.5025554272       -0.6015487489
 H          4.5436391149       -5.4122750611       -0.3847090005
 H          4.2998576742       -4.0140460482        0.2489033349
 O          1.3552675020       -0.2311775355       -3.9767946768
 H          1.3297104695        0.3315242987       -3.1747012907
 H          0.4464937182       -0.5864412026       -4.0119664748
 O          6.7007694691        3.3564034889        0.5213930133
 H          5.7751421627        3.5803105702        0.7278519994
 H          7.0484937374        3.0080132907        1.3643696687
 O          3.6734257934        2.0752364194       -1.7136940719
 H          3.4793038674        3.0126868311       -1.5179176194
 H          4.0619305269        2.0470185563       -2.6089328632
 O          6.3152676481       -2.4491655217       -0.4789330316
 H          6.7909212601       -1.9501602823       -1.1700388792
 H          5.9650163059       -3.2501998870       -0.8839213863
