  221
       -371.25583773
 H          0.1139154444       -0.7212848219        0.6077019841
 C          0.0226717623        0.2766279097        0.1812554576
 H         -0.9743756778        0.4095422296       -0.2344560915
 C          1.0419174818        0.4507836119       -0.9384786249
 H          1.0532991297        1.4923028796       -1.2632523882
 H          0.7145742317       -0.1704399685       -1.7719446994
 N          2.3875252789        0.0468547243       -0.5825287759
 H          2.8458852709        0.7094171715        0.0321783103
 H          2.3640213054       -0.8560352677       -0.1229830971
 O          0.2237513325        1.1812713318        1.2606652965
 H          0.4163339927        2.0736998290        0.8922241181
 O         -2.8769503141        2.6230897002        3.5844858004
 H         -3.6265365039        3.2598257845        3.6745113580
 H         -2.8950603582        2.3724795422        2.6462052050
 O          6.5043227850       -1.7741482016       -2.3562216671
 H          5.7962179507       -1.7357713559       -1.6665385969
 H          6.0640574227       -2.1305172052       -3.1340150802
 O          1.7622440385        0.6075458539       -4.4163227565
 H          2.4723141210        0.3424288817       -3.7886528290
 H          0.9087647901        0.5677303494       -3.9521451550
 O         -5.7954054226       -3.9345468789        2.3227405856
 H         -5.1388411807       -4.2492215456        1.6672164402
 H         -5.2981249260       -3.3981429456        2.9570592367
 O         -1.2048613076        2.8816174799       -0.8852255413
 H         -0.9604582840        3.0749338350       -1.8054414804
 H         -1.2135266540        3.7360426237       -0.4231800473
 O         -1.5282263492       -1.8375958347       -4.9589516775
 H         -1.9967836487       -2.5328481014       -4.4673614445
 H         -2.2266936790       -1.3073488588       -5.3970874165
 O          4.1226424085       -1.3287554782        2.0550147766
 H          4.9686123046       -1.1755358087        2.5025198282
 H          3.6259762742       -0.4898880525        2.0942182280
 O         -6.8348815028        2.2899591434        2.6397932023
 H         -6.5514042144        1.3687593485        2.7257012692
 H         -6.9768597803        2.4532403051        1.6966766828
 O          2.3297410121        3.1198079885       -3.6797246637
 H          3.2972527988        3.1562723551       -3.6715181175
 H          2.1182588549        2.2401376749       -4.0645726017
 O         -0.3760264589        3.7571619203       -3.3776243440
 H          0.5472640664        3.5749092823       -3.6018208705
 H         -0.9162361300        3.3795838382       -4.0986029783
 O          2.4387146838        0.6962822178        2.6823930685
 H          2.5552497080        1.6546156809        2.8502953260
 H          1.6229068657        0.6432301748        2.1445100604
 O         -0.7061950739       -5.1323205686       -2.4612363635
 H         -1.5052794807       -4.7195209542       -2.8388405918
 H         -0.9677570184       -5.4780643969       -1.5953583089
 O          2.2334439134        4.5454486918       -1.3310923561
 H          2.1534611821        4.0207750124       -2.1481111458
 H          3.1633577452        4.4202647210       -1.0498907718
 O         -0.8062917893        0.3148634255       -3.5368225746
 H         -1.4554074441        0.3886939693       -2.8136146668
 H         -1.0255992590       -0.5172926899       -4.0134590810
 O         -1.4392126056       -1.8919643521       -1.5877373085
 H         -1.5208845372       -2.2525107164       -0.6771978763
 H         -0.5429269259       -2.1422195274       -1.8803718661
 O          4.5046760557       -1.7780277827       -0.6373977100
 H          4.4467801004       -1.7124066680        0.3272775074
 H          4.0489768743       -2.5914224197       -0.9111924212
 O         -4.0035515192       -4.4352446540        0.3488652550
 H         -4.4857349030       -4.4486640661       -0.4916041203
 H         -3.6917198207       -3.5048153929        0.4181537672
 O         -0.1307387883        5.9683725455       -1.8305887944
 H         -0.3086045304        5.2577282760       -2.4766998266
 H          0.8066549901        5.8496799648       -1.6217873763
 O          1.0626089219        3.7020256545        0.8810299588
 H          0.3097428362        4.2978918369        0.9968855191
 H          1.5006827160        3.9863673937        0.0454574189
 O          4.8188628197       -4.6914792134        0.4866632789
 H          4.4803290211       -4.6194761970       -0.4184978661
 H          5.6014142248       -4.1056677131        0.5271355135
 O          4.1180124161       -2.4550322256       -3.9613366129
 H          3.9819168194       -1.5813262581       -3.5213104796
 H          3.3546903406       -2.5624252319       -4.5369576068
 O         -2.0418648382        2.2409291916       -4.9222444992
 H         -1.5004358736        1.5285036038       -4.5144253203
 H         -2.6845468960        2.5035135053       -4.2368950929
 O         -2.1295217475       -0.3777497024        2.2437040066
 H         -1.2341899608       -0.7185992654        2.3950565330
 H         -2.5109468616       -0.2490054554        3.1386766539
 O          2.6106763424       -0.4059877601        5.0578891941
 H          2.6421049032       -1.3564640987        4.8821332903
 H          2.4593024788       -0.0010268868        4.1634693233
 O         -1.5875597334       -5.6689468367        0.1402007141
 H         -2.5339353513       -5.4503197099        0.2503449591
 H         -1.2524439785       -5.9211004331        1.0204545088
 O         -6.3901174734       -1.4617621828       -1.1963950172
 H         -6.9081219610       -1.7927014004       -0.4411275329
 H         -5.8824205476       -0.7209074895       -0.8215713511
 O          0.0762872376       -1.4925666148        3.3627484262
 H          0.0374353993       -0.9274064649        4.1595427216
 H          0.9395107763       -1.9505847566        3.3719556445
 O          0.9237113882       -3.0801978095       -2.2882647109
 H          0.3780068268       -3.9001028645       -2.4058321816
 H          1.1000450024       -2.7354376893       -3.1926969369
 O          6.7049847190        3.7635266677        1.1248652269
 H          6.2444278211        3.4500567665        1.9160606921
 H          6.0024633076        3.9805014220        0.4821951833
 O         -5.0196491349        0.4714599829        0.1633309134
 H         -4.1737705790        0.9571839795        0.2952814364
 H         -5.3255765808        0.2078233541        1.0691572016
 O         -1.1508388484        5.2649701917        0.5278732048
 H         -0.8147819138        5.6973925417       -0.2918549350
 H         -2.0102031025        5.6457044321        0.7159596166
 O          4.9438746191        0.7980641566        5.2601473717
 H          4.0619426664        0.3388064674        5.2448204782
 H          5.0767563493        1.1135795577        6.1538525305
 O         -1.9059714181       -3.2914388528        3.1904663242
 H         -1.2114836334       -2.6801311538        3.5057117938
 H         -1.8134425640       -3.2185720522        2.2136036905
 O          2.5233615788       -4.8874703249        1.7225735758
 H          2.2546029583       -5.7714572918        1.4662606636
 H          3.4497925472       -4.7917902338        1.3757489327
 O          7.8925152786        1.8566751501       -0.2412541795
 H          7.4640326843        2.5848825963        0.2863657984
 H          8.7927779408        2.1348770121       -0.4049882990
 O          3.4823629488       -3.9954408231       -1.8699976618
 H          3.8744230085       -3.5996778783       -2.6773361673
 H          2.5271513887       -3.8610075343       -1.9924192142
 O         -0.0726239016        0.2490231880        5.4218996766
 H          0.8466758870        0.1126976565        5.6892963674
 H         -0.0802955923        1.0853770133        4.9016706294
 O         -5.1487922042       -0.0300041074       -3.3252771403
 H         -5.5990374027        0.8268670167       -3.2355474761
 H         -5.7131702910       -0.6731685023       -2.8820571855
 O         -4.3095985795        4.1739624833        0.5672565218
 H         -3.7295046904        3.4087505716        0.6959250441
 H         -3.9399254015        4.6748961763       -0.1818111629
 O         -0.2121140769        2.3341582900        3.7633686977
 H         -1.1383460501        2.6367998237        3.8211079872
 H         -0.1555685465        1.8650272368        2.9148656769
 O         -2.9227598128        0.3328267861       -1.7922153659
 H         -2.5298953674       -0.5206134612       -1.5370113098
 H         -3.6946049220        0.1165941888       -2.3486724230
 O          6.9735683373       -2.9998470480        0.2849730905
 H          6.7778418011       -2.0734276786        0.5086617320
 H          7.1569976804       -2.9803746842       -0.6603145882
 O          6.3873857699       -0.7530253199        3.5743379403
 H          6.7542583200       -1.5054838174        4.0386929798
 H          5.9621246048       -0.1724724662        4.2334073814
 O         -1.0560198040       -3.1244227277        0.6992859633
 H         -0.0918940990       -2.9384422006        0.7300981171
 H         -1.1584646173       -4.0511565340        0.3939893051
 O         -3.5162018522        2.8648541537       -2.7283946397
 H         -3.1787863917        2.1405326706       -2.1769974221
 H         -4.4797208958        2.7453328943       -2.7930381399
 O         -2.8577495640        0.1800639222        4.7642096641
 H         -2.0189239917        0.1371005132        5.2399586857
 H         -2.9887105488        1.1195596052        4.5222365745
 O         -4.9799675009        4.1762924186        3.3036713045
 H         -4.8237911367        4.4589383211        2.3916910007
 H         -5.7242232729        3.5457766996        3.2441745082
 O          2.3280596197        3.3282553753        3.1878229561
 H          1.9972277398        3.5804705872        2.2974087628
 H          1.5203243634        3.2148398220        3.7096567788
 O          4.5227036234        1.4576980967        0.7055456034
 H          4.7051985194        1.8249847595        1.5889544240
 H          5.1715192178        0.7450076788        0.5648160744
 O         -7.4437300641       -2.2876567557        1.1913057891
 H         -8.3305765267       -2.5461560362        1.4389159699
 H         -6.8291964596       -2.9771506248        1.5866618733
 O         -3.4626259467       -1.8357376124        0.4012770014
 H         -4.0756885226       -1.1479703547        0.1139395455
 H         -2.9392110807       -1.4368590130        1.1191320585
 O          5.1408221434        3.0400393380       -3.3820474436
 H          5.7058426226        3.4742912699       -4.0205394455
 H          5.5798792714        2.1947297659       -3.1478672269
 O         -0.4646323318       -5.5776607584        2.6275818617
 H         -1.0472499717       -4.8935626508        3.0085100411
 H          0.4133644981       -5.1898524692        2.5899874781
 O          5.0041768102        2.6317100273        3.1285593876
 H          4.1596103357        3.0981284372        3.2273814454
 H          5.0593769097        2.0182121334        3.8777125587
 O          6.6433980093       -0.2816808291        0.8502825910
 H          6.7995441423       -0.2901564812        1.8025246080
 H          7.2550225784        0.3627528956        0.4586230933
 O         -3.1457256811        5.2985266362       -1.6052284515
 H         -3.1955022180        4.4688080948       -2.1205043346
 H         -2.3821756647        5.7805891991       -1.9301305719
 O          6.3937563035        0.8930077422       -2.4240132482
 H          6.8780154972        1.2188371653       -1.6499685562
 H          6.5737863399       -0.0750002276       -2.4616523758
 O          3.7393237388       -0.0807977405       -2.8021726101
 H          4.6034139846        0.3229667200       -2.6534345948
 H          3.2971241321       -0.1184759094       -1.8925176185
 O          4.7045801297        3.7004899092       -0.7281571027
 H          4.5522713884        2.8248959793       -0.3013988816
 H          4.9428817791        3.5106036984       -1.6501255272
 O         -5.9258513944       -0.3885571447        2.4462484556
 H         -5.2795018564       -0.9552810745        2.9138838397
 H         -6.5997960894       -0.9969559778        2.0933153863
 O         -2.7990828900       -3.5146001559       -3.1639361126
 H         -2.3940878675       -2.8815756117       -2.5245637724
 H         -3.7014464181       -3.6621997582       -2.8472127323
 O         -2.8386515469        1.7975983072        0.9017612591
 H         -2.2157708848        2.0670544643        0.1952480007
 H         -2.4489537922        1.0006231680        1.3289117116
 O          2.4690586380       -2.7636645864        3.5559492485
 H          2.4329842070       -3.6506420809        3.1787980226
 H          3.0772424989       -2.2777379503        2.9510708508
 O          1.5314870337       -2.6918465777        0.4004749127
 H          1.4771036363       -2.8336642001       -0.5572495588
 H          1.9607119150       -3.4690443547        0.7961500186
 O         -3.4624575767       -0.0896751259       -5.6388903652
 H         -4.0987400689       -0.1010025463       -4.9105286208
 H         -3.0379511023        0.7847064806       -5.6225161994
 O         -6.2130208756        2.4617255923       -2.7913674618
 H         -6.8023282255        3.0443534218       -3.2686869175
 H         -6.4047753256        2.5864862733       -1.8212237539
 O         -6.4414706031        2.6928206686       -0.1901995621
 H         -5.7760354804        3.3650814017        0.0705529126
 H         -5.9840621222        1.8289951524       -0.0759307469
 O         -4.2266958532       -2.0634687895        3.7451399573
 H         -3.4025005031       -2.5545705017        3.5204389506
 H         -3.9605871968       -1.4250122123        4.4180080545
 O         -5.3103709279       -3.7770670004       -1.9990368080
 H         -6.0217630826       -4.2002598033       -2.4785628908
 H         -5.6477444110       -2.8991554705       -1.7057983713
 O          1.2611773478       -2.0907177011       -4.7617583794
 H          0.3393269101       -2.1467537825       -5.0551001728
 H          1.4907708868       -1.1439127910       -4.8241995212
