  136
       -229.31511800
 H         -0.2060024715       -1.0071226497        0.5907145941
 O          0.5538035224       -1.0797987253       -0.0977914873
 H          0.2897761170       -0.4806364571       -0.8778628164
 H          0.6316336606       -2.0614252743       -0.4023129085
 O          5.6751308676       -0.4286599914       -1.3881547187
 H          5.0752281400       -1.1904314117       -1.3533172667
 H          5.4406252649        0.0633574551       -2.1861412900
 O         -3.3494546401        2.9469443778        3.1283675378
 H         -4.1475296105        3.0450990158        3.6473917014
 H         -3.5896874169        2.4082057164        2.3318231425
 O          4.5007925055        1.3100028308       -3.3226410024
 H          5.1000051086        1.6402975080       -3.9930778333
 H          4.2662104397        2.0691807662       -2.7528748487
 O          0.5332930125       -3.4221220906       -1.0111665658
 H         -0.4151282881       -3.3714741496       -1.2963963401
 H          1.0537117624       -3.4306406160       -1.8277574447
 O         -2.7831680896        0.6212240330       -2.8629851476
 H         -2.6433404504        0.0212731206       -3.6135275159
 H         -2.6601437785        1.5299828500       -3.2514991311
 O          3.6231613977       -0.1903398972        2.4692604242
 H          2.6648536174       -0.2661242483        2.6779445416
 H          3.8674977914       -1.0778546009        2.1668867977
 O          0.0368974047       -1.2018487615        5.2131691475
 H          0.1732786748       -2.1527828689        5.0944282592
 H         -0.9159148676       -1.0913977878        5.3410183982
 O         -1.4520248607       -0.8373877324        1.3776516279
 H         -1.4629553293       -0.0909315504        2.0178200394
 H         -2.1785376271       -0.7163603643        0.7243125805
 O         -2.1085884901       -3.0765386582        2.6308151634
 H         -2.9732713833       -3.1577997914        2.1657567300
 H         -1.6809920790       -2.3129586164        2.1828679229
 O          0.3648161581        4.9014156644        0.0937409243
 H          1.2586663658        4.7605538764        0.4576764747
 H         -0.2125772706        4.7922280643        0.8626223881
 O          0.4217064177        3.2661645820       -4.2365440590
 H          0.5849788465        3.2301752468       -3.2579660761
 H          0.8300260258        4.0652925550       -4.5676618683
 O          4.4882139503        1.2888309973        0.3214921582
 H          4.1283048267        0.7854658944        1.0713920981
 H          5.0567622220        0.6709590554       -0.1797968888
 O          3.6219092394       -2.7535845472        1.3679435181
 H          4.3026696837       -3.4187898469        1.4683788108
 H          3.5820059495       -2.5331149029        0.4069741368
 O          0.5626446387        0.5600842771       -4.4138054713
 H          0.5824696823        1.5207107007       -4.5603925167
 H          0.3862023980        0.4527271223       -3.4502917198
 O         -1.9213352675       -3.0700682202       -1.8392515787
 H         -1.6735618793       -3.1331625675       -2.7956768506
 H         -2.4634090604       -3.8424361715       -1.6020665574
 O         -4.2033997615       -2.9700070035        0.9992261375
 H         -4.0019284801       -2.2285799947        0.4041266814
 H         -4.0748412110       -3.7704730232        0.4651907215
 O          2.8687775259       -0.8304991771       -4.4059600671
 H          3.5032033374       -0.2311866046       -3.9942408164
 H          2.0567497814       -0.3028799024       -4.5371425968
 O         -2.7436728954       -1.1217064026        4.5025959579
 H         -2.2867688946       -0.3620819871        4.0972805976
 H         -2.5217050632       -1.9004742214        3.9648623615
 O          1.0068703240       -0.4050588230        2.8398881577
 H          0.6977303004       -0.5313983168        3.7600003338
 H          0.9164359851       -1.2928372177        2.4251761957
 O         -0.9642796646       -4.9623180266        0.9629371804
 H         -1.2637481252       -4.3399359231        1.6495450951
 H         -0.2105375194       -4.5361043083        0.5351150472
 O          1.3847778766        1.3858980647        0.7854202869
 H          1.3046723916        0.8045841418        1.5581746787
 H          0.4713981059        1.6322248782        0.5512429580
 O         -4.4854945382        2.2757986564       -1.1267483682
 H         -3.9257447679        3.0610435102       -1.2008118972
 H         -4.3004282407        1.7419853839       -1.9055492646
 O         -3.1211662661       -1.0099341502       -0.6538552839
 H         -3.2584409983       -0.3130953232       -1.3090969377
 H         -2.6743839075       -1.7356064053       -1.1386102093
 O          0.9376937102       -2.8951234560        1.9058915343
 H          1.8874659446       -2.9635490878        1.7092920868
 H          0.7852724646       -3.3692967175        2.7352248387
 O         -3.1547340398       -5.0587308248       -0.5056546539
 H         -2.3319979883       -5.1291352724        0.0471102564
 H         -3.4584389798       -5.9522384893       -0.6642893709
 O         -4.7525819245       -0.6593786051        2.6409219656
 H         -4.9065930528       -1.5225350615        2.2431921680
 H         -4.2330910441       -0.8116031457        3.4515007594
 O         -1.1990327055        2.1132401776        0.4147006581
 H         -2.0274218348        1.6515816645        0.6452712514
 H         -1.0813937126        2.7866534638        1.1201146238
 O         -3.6157436100        1.2265639345        1.1564480063
 H         -4.1137934003        0.5093860694        1.6086786459
 H         -4.1270197060        1.5161841339        0.3730002352
 O         -0.8256674610       -3.0677241597       -4.2007947328
 H         -1.1429835182       -2.2464448508       -4.6154587970
 H          0.1211290750       -2.9559286244       -4.0282580208
 O          0.7138095287        2.4911142544        4.0054207748
 H          0.7170019789        2.5294368178        4.9628602172
 H          1.6516940503        2.4226762829        3.7301155534
 O         -1.4752322142        0.9742378752        3.3093951736
 H         -0.6072932749        1.3499703194        3.5331632897
 H         -2.1292162500        1.6929129342        3.3638598325
 O          0.8070181959        2.9455757637       -1.6586074985
 H          1.7769232445        2.8671884566       -1.5482405133
 H          0.5359314285        3.6651400146       -1.0442120391
 O         -0.9348716489        3.9522172660        2.3397565207
 H         -1.8157088332        3.8898173973        2.7389279896
 H         -0.3003560730        3.5815818027        2.9770560471
 O          2.3466124709        0.2134216120       -1.4914164688
 H          2.1564652639        0.6507374287       -0.6371922507
 H          2.9879689783        0.7539208917       -1.9538123212
 O         -0.0945045292       -3.8702420555        4.3079794261
 H         -0.9411064632       -3.7236593010        3.8511414917
 H         -0.1472175698       -4.7271343336        4.7319283181
 O          3.3797985835        2.3619695448        3.4844186139
 H          4.0299967243        2.5155070226        4.1706023921
 H          3.5975942020        1.4994146126        3.0902774238
 O          3.4925711088       -2.1170570597       -1.1998813631
 H          3.0076609623       -1.2517512540       -1.2554416569
 H          3.0961127506       -2.6719952649       -1.8815074105
 O         -1.7137459022       -0.6274822285       -5.0834020160
 H         -0.8568092764       -0.1520248868       -4.9593635257
 H         -2.0033594843       -0.4625873028       -5.9807046613
 O          2.6124839045        3.7904060721        1.1107472493
 H          3.0844705544        3.7279569831        1.9451445111
 H          2.2342102533        2.8961480548        0.9825483975
 O         -2.1975594444        3.9724310538       -1.2524688928
 H         -1.7706555002        3.2616627985       -0.7229442526
 H         -1.7252215659        4.7793231334       -1.0373164013
 O          1.9369922007       -3.0472260643       -3.3944765116
 H          2.2974129646       -2.1926006928       -3.7633838011
 H          2.2898072725       -3.7427653216       -3.9511286961
 O          3.5126381916        2.9604568973       -1.4128757377
 H          3.6054007286        3.8335253521       -1.0230719710
 H          3.8367945102        2.3503913576       -0.6927723114
 O         -2.2906994798        3.0083590773       -3.7777800863
 H         -1.3899890649        3.1120062636       -4.1236719803
 H         -2.3135252048        3.5150104776       -2.9442262682
 O         -0.3170734048        0.5025085706       -1.8965440587
 H         -0.0077749632        1.4051507771       -1.6729046761
 H         -1.2786778004        0.5524959486       -2.1047624491
