  92
       -146.49685838
 H         -4.3272173822       -1.1852950613       -0.9738326981
 C         -3.7686129104       -0.3443939192       -0.5579367190
 C         -3.5682089946        1.2473893078        1.3625431829
 C         -1.5612317587        0.4275183231        0.3190963792
 C         -2.3151750500       -0.7418164796       -0.3151936891
 C         -4.3961229420        0.1098202789        0.7584139003
 H         -3.5994009006        2.1145208263        0.6969810986
 H         -1.5635877812        1.2727579623       -0.3726753211
 H         -2.2898736017       -1.5986711354        0.3590036393
 H         -4.4191795682       -0.7294215405        1.4591364674
 H         -3.8068446362        0.4756411638       -1.2782595423
 H         -3.9873296048        1.5417154886        2.3276250688
 H         -0.5286384106        0.1435860783        0.5246827319
 H         -1.8352583924       -1.0233635302       -1.2506241608
 H         -5.4210998077        0.4476281188        0.5988139549
 N         -2.1704817448        0.8855613251        1.5630064600
 H         -2.1158067078        0.1433740618        2.2575650895
 O          4.2911073240        1.2045811352       -2.5608787012
 H          4.2332071518        1.9078423331       -1.8930861573
 H          3.3756980965        0.8667543695       -2.6622005572
 O          0.4041550720       -5.0123412489       -0.9907105434
 H         -0.4536312757       -4.8213450626       -0.5763017206
 H          0.4216179511       -4.4990482036       -1.8241042402
 O         -1.6206846230       -1.3061915058        3.6266251793
 H         -1.3434489983       -2.0093248175        2.9936880855
 H         -1.7286121709       -1.7354478881        4.4753962175
 O          4.0697836115       -0.5931484072        0.8580030504
 H          4.4017863642       -1.2575436618        1.4629127891
 H          4.5333305093       -0.7230222727        0.0041445297
 O         -0.8862856834        3.0628871141        2.5020515692
 H          0.0505182733        2.8173944885        2.6348293023
 H         -1.3342994433        2.2403329058        2.1684494011
 O         -2.4485430771       -3.7926941173       -2.6776237502
 H         -2.2913233973       -2.8656210878       -2.9240130850
 H         -1.7106279103       -4.2773025234       -3.0610979360
 O         -1.3504798268        4.5410544409        0.3068105508
 H         -1.0723402371        4.0839631817        1.1306813630
 H         -2.3204073623        4.6029644356        0.3859274147
 O          1.4622378705        1.7044830894       -0.2546776355
 H          2.2654118049        2.2334187331       -0.4205259563
 H          0.7261472805        2.1887040822       -0.6834748655
 O          2.9591486396       -2.4303899025       -2.0455916211
 H          2.8589386766       -2.9862111349       -1.2573181829
 H          3.8541904423       -2.0598236469       -2.0018858124
 O          1.4354434422       -1.4295483833        0.7160002453
 H          1.7875728970       -2.3274896973        0.5727090356
 H          2.2145841811       -0.8536410102        0.6603664627
 O         -1.4418774030       -1.4683684977       -3.7223468079
 H         -1.6514481984       -1.4851026351       -4.6572496955
 H         -1.1414269635       -0.5396220372       -3.5402283750
 O         -2.1368696662       -4.3224847469       -0.1062761579
 H         -2.3410220184       -4.0336760120       -1.0302994270
 H         -2.7788940680       -4.9976674391        0.1138689649
 O         -3.9896797960        4.6667379072        1.0223451951
 H         -3.7444956313        4.4939450507        1.9567209418
 H         -4.3483756499        5.5547750738        1.0049478070
 O          1.8689492380        0.0491360969       -2.3125375099
 H          2.1252254153       -0.8800539767       -2.1668750487
 H          1.6828030605        0.4431211683       -1.4339175348
 O         -3.0792439537        4.2143731130        3.5399406958
 H         -3.4439886913        3.5160125713        4.0848860490
 H         -2.1929105772        3.9016066480        3.2637342741
 O          1.5949288913        2.0048825109        2.4397925323
 H          1.4617897219        1.8374646607        1.4839289976
 H          1.4252467533        1.1406626273        2.8780514991
 O         -0.6511246454       -3.0365775194        1.8499554102
 H         -1.2096948084       -3.4816568296        1.1954911121
 H         -0.0576220876       -2.4585240527        1.3525616138
 O         -0.4274874904        3.0790649865       -1.6100320495
 H         -0.0381310922        3.7099259424       -2.2175483197
 H         -0.8482361993        3.6325715144       -0.8860233494
 O          0.5152125497       -3.3795030781       -3.1597609648
 H          1.4010459429       -3.0252972652       -3.0070257236
 H         -0.0654403089       -2.6143648950       -3.3154294397
 O         -0.4384605407        0.9216403658       -3.4069311846
 H          0.4539283458        0.6264382011       -3.1384034936
 H         -0.6798310715        1.6076661457       -2.7690828708
 O          1.0163860784       -0.4546929326        3.2912586147
 H          1.1449910169       -0.8882972066        2.4299936828
 H          0.0796554579       -0.5876836114        3.5097978256
 O          4.2315101228        2.0047341407        1.8091246978
 H          4.2474879505        1.0669209033        1.5544470492
 H          3.3512631981        2.1323516979        2.2220931174
 O          5.2667398966       -0.9595164223       -1.5268508651
 H          4.9445819664       -0.1122085146       -1.9638998785
 H          6.2025413159       -1.0171616668       -1.7182256991
 O          2.4196007672       -3.9226105269        0.2410123640
 H          2.7436742393       -4.5241188362        0.9108827952
 H          1.6482431593       -4.3874887310       -0.1949985339
 O          3.8203933978        3.0477255143       -0.5362995445
 H          4.0818936732        2.6934784560        0.3646317111
 H          3.9459642428        3.9955991888       -0.4991109408
