  92
       -146.49685838
 H         -4.3272173822       -1.1852950613       -0.9738326981
 C         -3.7686129104       -0.3443939192       -0.5579367190
 C         -3.5682089946        1.2473893078        1.3625431829
 C         -1.5612317587        0.4275183231        0.3190963792
 C         -2.3151750500       -0.7418164796       -0.3151936891
 C         -4.3961229420        0.1098202789        0.7584139003
 H         -3.5994009006        2.1145208263        0.6969810986
 H         -1.5635877812        1.2727579623       -0.3726753211
 H         -2.2898736017       -1.5986711354        0.3590036393
 H         -4.4191795682       -0.7294215405        1.4591364674
 H         -3.8068446362        0.4756411638       -1.2782595423
 H         -3.9873296048        1.5417154886        2.3276250688
 H         -0.5286384106        0.1435860783        0.5246827319
 H         -1.8352583924       -1.0233635302       -1.2506241608
 H         -5.4210998077        0.4476281188        0.5988139549
 N         -2.1704817448        0.8855613251        1.5630064600
 H         -2.1158067078        0.1433740618        2.2575650895
 O          4.2911073240        1.2045811352       -2.5608787012
 H          4.2332071518        1.9078423331       -1.8930861573
 H          3.3756980965        0.8667543695       -2.6622005572
 O          0.4041550720       -5.0123412489       -0.9907105434
 H         -0.4536312757       -4.8213450626       -0.5763017206
 H          0.4216179511       -4.4990482036       -1.8241042402
 O         -1.6206846230       -1.3061915058        3.6266251793
 H         -1.3434489983       -2.0093248175        2.9936880855
 H         -1.7286121709       -1.7354478881        4.4753962175
 O          4.0697836115       -0.5931484072        0.8580030504
 H          4.4017863642       -1.2575436618        1.4629127891
 H          4.5333305093       -0.7230222727        0.0041445297
 O         -0.8862856834        3.0628871141        2.5020515692
 H          0.0505182733        2.8173944885        2.6348293023
 H         -1.3342994433        2.2403329058        2.1684494011
 O         -2.4485430771       -3.7926941173       -2.6776237502
 H         -2.2913233973       -2.8656210878       -2.9240130850
 H         -1.7106279103       -4.2773025234       -3.0610979360
 O         -1.3504798268        4.5410544409        0.3068105508
 H         -1.0723402371        4.0839631817        1.1306813630
 H         -2.3204073623        4.6029644356        0.3859274147
 O          1.4622378705        1.7044830894       -0.2546776355
 H          2.2654118049        2.2334187331       -0.4205259563
 H          0.7261472805        2.1887040822       -0.6834748655
 O          2.9591486396       -2.4303899025       -2.0455916211
 H          2.8589386766       -2.9862111349       -1.2573181829
 H          3.8541904423       -2.0598236469       -2.0018858124
 O          1.4354434422       -1.4295483833        0.7160002453
 H          1.7875728970       -2.3274896973        0.5727090356
 H          2.2145841811       -0.8536410102        0.6603664627
 O         -1.4418774030       -1.4683684977       -3.7223468079
 H         -1.6514481984       -1.4851026351       -4.6572496955
 H         -1.1414269635       -0.5396220372       -3.5402283750
 O         -2.1368696662       -4.3224847469       -0.1062761579
 H         -2.3410220184       -4.0336760120       -1.0302994270
 H         -2.7788940680       -4.9976674391        0.1138689649
 O         -3.9896797960        4.6667379072        1.0223451951
 H         -3.7444956313        4.4939450507        1.9567209418
 H         -4.3483756499        5.5547750738        1.0049478070
 O          1.8689492380        0.0491360969       -2.3125375099
 H          2.1252254153       -0.8800539767       -2.1668750487
 H          1.6828030605        0.4431211683       -1.4339175348
 O         -3.0792439537        4.2143731130        3.5399406958
 H         -3.4439886913        3.5160125713        4.0848860490
 H         -2.1929105772        3.9016066480        3.2637342741
 O          1.5949288913        2.0048825109        2.4397925323
 H          1.4617897219        1.8374646607        1.4839289976
 H          1.4252467533        1.1406626273        2.8780514991
 O         -0.6511246454       -3.0365775194        1.8499554102
 H         -1.2096948084       -3.4816568296        1.1954911121
 H         -0.0576220876       -2.4585240527        1.3525616138
 O         -0.4274874904        3.0790649865       -1.6100320495
 H         -0.0381310922        3.7099259424       -2.2175483197
 H         -0.8482361993        3.6325715144       -0.8860233494
 O          0.5152125497       -3.3795030781       -3.1597609648
 H          1.4010459429       -3.0252972652       -3.0070257236
 H         -0.0654403089       -2.6143648950       -3.3154294397
 O         -0.4384605407        0.9216403658       -3.4069311846
 H          0.4539283458        0.6264382011       -3.1384034936
 H         -0.6798310715        1.6076661457       -2.7690828708
 O          1.0163860784       -0.4546929326        3.2912586147
 H          1.1449910169       -0.8882972066        2.4299936828
 H          0.0796554579       -0.5876836114        3.5097978256
 O          4.2315101228        2.0047341407        1.8091246978
 H          4.2474879505        1.0669209033        1.5544470492
 H          3.3512631981        2.1323516979        2.2220931174
 O          5.2667398966       -0.9595164223       -1.5268508651
 H          4.9445819664       -0.1122085146       -1.9638998785
 H          6.2025413159       -1.0171616668       -1.7182256991
 O          2.4196007672       -3.9226105269        0.2410123640
 H          2.7436742393       -4.5241188362        0.9108827952
 H          1.6482431593       -4.3874887310       -0.1949985339
 O          3.8203933978        3.0477255143       -0.5362995445
 H          4.0818936732        2.6934784560        0.3646317111
 H          3.9459642428        3.9955991888       -0.4991109408
  92
       -146.49639756
 H          3.2445421947       -1.6653007592        4.2064189972
 C          3.1147460597       -1.0468865634        3.3159861663
 C          1.7499110716       -0.6914062605        1.2432180183
 C          2.5146860934        1.2383151430        2.4738052246
 C          2.7866097337        0.3897489399        3.7185996877
 C          1.9923779090       -1.6072174788        2.4450169538
 H          2.6276369219       -0.6842649159        0.5930015538
 H          3.4252605483        1.3209504803        1.8710271850
 H          1.8945049661        0.3908012295        4.3495144269
 H          1.0737722209       -1.6660579036        3.0323142903
 H          4.0567311151       -1.0672587397        2.7607539670
 H          0.8997564683       -1.0580883436        0.6683163043
 H          2.2184571646        2.2476228673        2.7677966421
 H          3.6079768056        0.8241295181        4.2905016883
 H          2.2430151730       -2.6126755485        2.1035645862
 N          1.4649523046        0.6847071745        1.6286611672
 H          0.5866393628        0.6852452710        2.1463486367
 O          5.0275918773        1.8580999202       -1.6844105522
 H          5.2949171486        1.0904415578       -1.1476172530
 H          4.6398243320        2.4941392280       -1.0504871650
 O         -1.3380519820       -3.6737824159       -0.0582908314
 H         -1.5923128870       -4.5285553287       -0.4104407741
 H         -1.5986892348       -3.0035906938       -0.7427721363
 O         -3.3800050441       -1.2988965639        3.3681574506
 H         -3.4089587759       -1.6178169276        4.2698097800
 H         -3.3654498218       -2.1025702431        2.7825591562
 O          3.6641628546       -2.3291523375       -1.1445754048
 H          4.1614893374       -3.1483745916       -1.1711077864
 H          3.4851241887       -2.0865811146       -2.0786756992
 O         -4.0963366642        1.2687808845        0.4352731013
 H         -4.5801697034        1.8498963989       -0.1774113523
 H         -4.7482585170        0.8219907091        1.0239620706
 O         -4.3367824198       -0.6095420225       -1.5284324095
 H         -3.5328838869       -1.0662497134       -1.8166894989
 H         -4.0602483883        0.0311282634       -0.8368293267
 O         -1.0856627071        3.9941783053        0.4279015005
 H         -1.2660318411        4.9199811169        0.5866349760
 H         -1.6071856503        3.4844415999        1.1275817146
 O          0.4527976472        2.2873992742       -2.8089599199
 H          0.8147155622        2.5746495210       -1.9470079041
 H          0.4311030702        1.3199809848       -2.7230660239
 O          0.5837707126       -2.4466293324       -3.2035026527
 H          1.3855717430       -2.3627152559       -3.7325081408
 H          0.8088843730       -3.0808171697       -2.4813980835
 O          5.2789258447       -0.3587349723       -0.0763872991
 H          4.9077198918       -0.1169781299        0.7753181786
 H          4.7026324981       -1.0529410628       -0.4457796591
 O         -1.2982844575        0.2642245233       -0.4122111951
 H         -0.3647865919        0.2833889872       -0.6826630032
 H         -1.7063391664        1.0739213364       -0.7950845451
 O         -5.4474692372       -2.3454285069        0.0997470662
 H         -6.2459307772       -2.7024138727       -0.2878315363
 H         -5.0643650862       -1.7134823650       -0.5681161373
 O         -4.7688410215        2.3784378148       -1.9427183891
 H         -3.8113628523        2.5358053817       -2.0009992525
 H         -4.9109950034        1.5001150242       -2.3093044094
 O          0.9656810367       -0.1976847051       -1.7782915580
 H          0.8210873387       -1.0062892152       -2.3083483063
 H          1.8595552188        0.1156319820       -1.9910485525
 O         -5.5750470957       -0.2884026726        1.9967993232
 H         -5.6657690568       -1.0566934786        1.4093856757
 H         -4.8637195693       -0.5259571036        2.6150009300
 O         -2.4892509738        2.6497448580        2.1072520764
 H         -1.9675875157        1.8735150301        2.3982261300
 H         -3.1606221211        2.2499769484        1.5143173092
 O         -3.4334390842       -3.3462831518        1.7285144025
 H         -2.6286062366       -3.4117577940        1.1850961877
 H         -4.1538893391       -3.0908626804        1.1285542445
 O          1.1971650183        2.6411021089       -0.2208925211
 H          1.2483844108        1.8486069684        0.3742612441
 H          0.4437683451        3.1686990872        0.0982930659
 O         -1.8810224024       -1.8457838031       -1.8824862918
 H         -1.1938261111       -1.9655228307       -2.5501711301
 H         -1.6232081729       -1.0562262823       -1.3387604885
 O         -2.0020186438        2.5266022664       -1.6873147411
 H         -1.2349937274        2.5447833786       -2.2950079202
 H         -1.7784474756        3.1563055816       -0.9768053721
 O         -1.3337374089        0.2420127476        2.3524352109
 H         -1.4304566599        0.1525836481        1.3863250479
 H         -2.0487164974       -0.2871131282        2.7443791083
 O          3.7201790579        3.5094725474        0.0364451110
 H          3.7305836821        4.4403593880       -0.1872483976
 H          2.7869420230        3.2108209197       -0.0510270918
 O          3.2657898852       -1.6334414433       -3.7490137071
 H          4.0160333374       -1.7416476922       -4.3345177583
 H          3.1737063834       -0.6634930521       -3.6060102930
 O          1.2504753530       -3.7899474583       -1.0069272652
 H          0.4603976817       -3.7006873679       -0.4456170809
 H          1.9168018657       -3.1678142397       -0.6841047437
 O          3.0589792278        0.9269205345       -3.0923956378
 H          2.5079050368        1.6647002396       -3.3743220382
 H          3.8394303004        1.3126612701       -2.6013983814
  92
       -146.49076665
 H         -2.0772035040       -0.7552990790       -1.4158512041
 C         -1.1620662088       -0.2521015944       -1.1222708644
 C         -0.1927245097        1.5635768830        0.2698782668
 C          1.0092188573       -0.5113218427        0.0725241523
 C         -0.2459175217       -1.2339748446       -0.4039859776
 C         -1.4872130552        0.9169935898       -0.2019660134
 H          0.3579586441        1.9546187572       -0.5870123026
 H          1.5533208216       -0.1127766950       -0.7863801616
 H         -0.7658405691       -1.6486855849        0.4592128064
 H         -2.0347586971        0.5530279009        0.6659382191
 H         -0.6632258330        0.1176754877       -2.0168043603
 H         -0.4095099029        2.3809947897        0.9564267390
 H          1.6600841096       -1.1942085375        0.6201444092
 H          0.0248940365       -2.0478460561       -1.0693181697
 H         -2.1025092743        1.6540729814       -0.7146541248
 N          0.6761317529        0.6075822745        0.9504073054
 H          0.1774173475        0.2324822584        1.7592470502
 O          3.3215612208        2.8012068268       -0.8106773402
 H          2.4982392200        3.2903407811       -1.0006422793
 H          3.2563151633        2.5304670701        0.1139041407
 O         -2.1895375839       -3.8968559586        0.1537732909
 H         -1.2049888731       -4.0382291359        0.1536956609
 H         -2.5783392399       -4.7724840838        0.1424291623
 O         -0.5398076712       -1.0397095048        3.1518072410
 H         -1.4417755405       -1.2837242444        2.8988591531
 H          0.0073114307       -1.8197919292        2.9541439211
 O          3.8068653456       -1.6640495112       -1.2201548431
 H          3.6933717757       -0.8596145366       -1.7570808040
 H          3.9478050185       -1.3409319881       -0.3179334217
 O          1.2755201745        0.8812713852        4.0016801463
 H          0.7571952240        1.6964835237        3.8989221321
 H          0.6152299938        0.1801067404        3.8796153074
 O         -3.0103021582        1.1796458851       -3.2437633498
 H         -2.1920286790        1.7140402818       -3.1072157254
 H         -3.5398113608        1.6744452677       -3.8704478954
 O         -2.8484210679        2.4721250705        2.4800019637
 H         -3.1601438151        3.1008487362        1.8278387260
 H         -3.3254379492        1.6339207868        2.2743664408
 O          1.0378786726        0.8411071555       -3.7913621166
 H          0.8019416563       -0.0941888537       -3.9485131064
 H          1.8882790913        0.8148609694       -3.3266946174
 O          1.7997516305       -3.2756032268       -1.9061602654
 H          2.5191414726       -2.6667157653       -1.6052639904
 H          2.2356312041       -3.9471758206       -2.4332664323
 O          3.0322272793       -1.3464971531        3.3628482421
 H          3.5518608886       -1.0483159793        2.5957347820
 H          2.5437164432       -0.5758043480        3.6841994592
 O         -2.4151759783       -1.4213475714       -3.8702624993
 H         -2.5785903570       -0.4835677272       -3.6314077727
 H         -2.6833129257       -1.5226458088       -4.7841860721
 O         -3.8481285923       -2.5104918335       -1.7056746138
 H         -3.3404975264       -2.2926732846       -2.5028994340
 H         -3.2276650352       -2.9346973836       -1.0954673202
 O         -4.1859219395        0.2988700521        1.6656478680
 H         -4.4228483293        0.2955263290        0.7164481539
 H         -3.7546081915       -0.5529708632        1.8273304773
 O          0.3887542975       -1.8022990054       -3.9336308580
 H         -0.5710006703       -1.7895666453       -3.7952628150
 H          0.7799288997       -2.2927913669       -3.1950870017
 O         -4.6249180881        0.0609122905       -1.0324134357
 H         -4.0948487842        0.5237886035       -1.6937571087
 H         -4.4968989907       -0.8884279184       -1.2165978853
 O         -0.4460525421        3.0438272045        3.5078053328
 H         -1.2943208300        2.7347128977        3.1141338206
 H         -0.6898482693        3.5036914941        4.3123183616
 O         -2.9020912697       -2.1785699964        2.1376668291
 H         -3.5570213383       -2.6648759609        2.6396003285
 H         -2.6544804927       -2.7441367806        1.3756821419
 O          0.9610695256        4.2141754817       -1.0031626221
 H          0.9772679916        4.2698951558       -0.0188561262
 H          1.0846158802        5.1083920090       -1.3242796363
 O          0.4093142876       -4.3604659321        0.2614461034
 H          0.7436820562       -3.8921550706        1.0434589070
 H          0.8986552997       -3.9992546722       -0.4985355088
 O         -0.7960215412        2.6785596100       -3.0719288055
 H         -0.3704565315        3.1673278869       -2.3594218747
 H         -0.1179477223        2.0507123932       -3.4025200974
 O          4.3216053838       -0.2592571952        1.1873273893
 H          5.2461756058       -0.0105300309        1.2038908458
 H          3.7991155160        0.5698592375        1.3292154647
 O          2.7722237347        1.8092567856        1.7958713342
 H          2.6588860161        1.6842423573        2.7474766552
 H          1.9175592290        1.3334423695        1.4138717217
 O          3.4952913820        0.7671611626       -2.4720324612
 H          4.1596787199        1.0083061757       -3.1182238996
 H          3.4459553630        1.5218262849       -1.8300505885
 O          1.2197205770       -3.1140161854        2.6389380826
 H          1.2527753388       -3.8104472477        3.2958459610
 H          1.9620896405       -2.4948249779        2.8655396342
 O          1.3187908365        4.1953487731        1.6633692187
 H          0.6309025653        3.9385612620        2.2980042113
 H          1.9815440759        3.4856793293        1.7237005703
  92
       -146.49057056
 H          0.6704883731       -1.7508355293       -0.1066350953
 C          0.4070484251       -0.7223798216       -0.3407159811
 C         -1.3814992596        0.9920744332       -0.2904508418
 C          0.8943475465        1.6903873160        0.0799772543
 C          1.3034271820        0.2563629437        0.4160455149
 C         -1.0450048234       -0.4579701543        0.0375101169
 H         -1.2657921737        1.1445335311       -1.3644704933
 H          1.0371836952        1.8632122473       -0.9880709877
 H          1.1948948242        0.0984360360        1.4906059552
 H         -1.1761281158       -0.6327096614        1.1037329298
 H          0.5372215253       -0.5773896552       -1.4147459920
 H         -2.4054605430        1.2241318013       -0.0032879592
 H          1.5006474928        2.4101610989        0.6316542664
 H          2.3456413938        0.1052962685        0.1514039528
 H         -1.7176404787       -1.1173362890       -0.5047216543
 N         -0.5072375495        1.9510087346        0.3754434621
 H         -0.6635717531        1.8970495205        1.3787205232
 O          4.1233161460       -1.1408778656       -1.2319406917
 H          4.9343528940       -1.3448118917       -1.6990859402
 H          4.3699313267       -0.5477147261       -0.4877596918
 O         -0.0452478690       -4.5685039650        1.7047057601
 H         -0.9723790191       -4.3457213616        1.5084478435
 H          0.3771872389       -4.6401206536        0.8342308641
 O         -2.3206615541        1.5177402542        2.8345013097
 H         -3.0536226544        1.0924498845        2.3589268830
 H         -1.7267287918        0.8000010440        3.0927605769
 O          1.2386100015       -2.3800693275        2.5498387142
 H          1.7807794136       -2.3509622484        1.7416798351
 H          0.7376318152       -3.2192136943        2.4380530664
 O         -4.3720824384        0.2360088895        1.4276815578
 H         -4.4026671766        0.2493938221        0.4354431633
 H         -5.2592596826        0.4451619723        1.7215601689
 O         -2.8027544321       -1.2936495157       -2.7018230075
 H         -3.3292322351       -1.6772335056       -3.4051469103
 H         -2.3775788536       -0.4901675547       -3.0973265686
 O         -1.7651324614        4.0606335925       -0.5989827897
 H         -2.2466847621        4.3391293862        0.1972590771
 H         -1.1883034159        3.3170520898       -0.2529944216
 O          0.4814228497        4.4738521364       -2.1981524792
 H         -0.3392231409        4.5086125527       -1.6831974604
 H          0.4798059683        3.6097584329       -2.6447108634
 O          0.8645357557       -4.4367128848       -0.9624604573
 H          0.9895113610       -5.2210726512       -1.4968821068
 H          0.0110315506       -4.0364389026       -1.2646048478
 O          4.4239119168       -3.5187895496        2.4128464571
 H          3.9074662734       -3.4284943299        1.5876950443
 H          3.9070649055       -4.0926859739        2.9813729292
 O         -1.9491278508        0.9757669674       -3.7569730016
 H         -1.0265693221        1.2771648167       -3.6791969674
 H         -2.4849254020        1.6420666284       -3.2919789833
 O         -2.6021558300       -3.8743771290        0.9155622158
 H         -3.2790347910       -4.5332898639        1.0714072365
 H         -2.8131901997       -3.1155023571        1.5232442189
 O         -4.4910016994        0.3531124654       -1.2104660491
 H         -4.1808433213        1.2147085226       -1.5368603833
 H         -3.9214626961       -0.3072864725       -1.6438564944
 O          0.5989917404        2.0231619075       -3.5505231246
 H          1.3970255965        1.5257836433       -3.2350333752
 H          0.8212040019        2.3132100355       -4.4368635081
 O         -3.1564194239       -1.9408008112        2.5909130141
 H         -2.3183192666       -1.5724086981        2.9217615711
 H         -3.6209754625       -1.2056515487        2.1529102959
 O         -2.7506344177        4.1388035564        1.9664166873
 H         -2.6021531511        3.2249761876        2.2635218851
 H         -2.3434902877        4.6998803629        2.6272988587
 O         -0.7514751986       -0.8382515776        3.4561368356
 H         -0.0114804153       -1.3537130664        3.0523150250
 H         -0.6589596441       -0.9517287590        4.4032133757
 O          2.5222946693        4.5040785475       -0.4660067213
 H          2.9647981880        5.3382427779       -0.6261721323
 H          1.7602103732        4.4828310590       -1.0931928375
 O         -1.5499270859       -3.5935984589       -1.6369807740
 H         -1.9845076432       -3.6677921332       -0.7701350451
 H         -1.8549753911       -2.7548929360       -2.0169405617
 O         -3.4118152139        2.7538683698       -2.1959187119
 H         -3.9856847192        3.4139146049       -2.5853316578
 H         -2.7915867706        3.2473163842       -1.5915931179
 O          3.7689049204       -0.9545344503        3.0140795820
 H          4.1807337920       -1.8347834273        2.8882875663
 H          2.8234842582       -1.1364026314        3.0587830796
 O          4.7036862874        0.3800908183        0.9256965059
 H          5.6143707652        0.5431692026        1.1755714753
 H          4.2865787928       -0.0614007974        1.7106291031
 O          2.8440535465        0.8597565931       -2.8175012470
 H          3.0068853431        0.0121164374       -2.3840439162
 H          3.3470774304        1.5100089712       -2.2754240859
 O          2.8014595803       -2.9595240124        0.3214281682
 H          2.1990706741       -3.5149302939       -0.1990515825
 H          3.2167596656       -2.3353431334       -0.2998287365
 O          4.1484832453        2.4108697784       -1.0687538847
 H          3.5713289582        3.1610184344       -0.8193581793
 H          4.2282793959        1.8577795615       -0.2817720470
