  191
       -320.31873864
 H         -2.0121560155        0.1835207710       -1.5636845016
 C         -1.0143765924       -0.0791278094       -1.2073309394
 H         -0.3832063425       -0.3096145595       -2.0690676394
 C         -1.0807204680       -1.2972596540       -0.2912642516
 H         -0.0765161395       -1.5358462415        0.0552179542
 H         -1.4752521644       -2.1407175932       -0.8544806067
 N         -1.9250685840       -1.0883608896        0.8824115832
 H         -1.5906559441       -0.2821110438        1.3987647449
 H         -2.8667599440       -0.8704392255        0.5632055997
 O         -0.5094787461        1.0630619713       -0.5366105525
 H          0.0730938997        0.7816770108        0.1991098619
 O          2.3970597415        4.5335697087       -1.5558683699
 H          2.9758218575        3.9777489618       -2.1006398918
 H          1.5217725599        4.5356012239       -2.0053920196
 O         -4.4495662100       -0.0791968657       -0.0199109275
 H         -4.8448936803       -0.3497815192        0.8407540293
 H         -4.1655013534        0.8534503128        0.1215243633
 O          4.0681813524        2.4227348930       -2.2245445692
 H          3.4149961976        1.7857742202       -1.8410517360
 H          4.0533946052        2.1879488468       -3.1822683388
 O         -6.3656312003        2.9740871254       -0.4612910695
 H         -6.5844521467        2.0799637112       -0.8194474876
 H         -6.8481277538        3.0229199644        0.3802430487
 O         -1.0084070258        0.5988628261        3.5022875647
 H         -0.6634652710        0.1224546175        4.2750977783
 H         -0.3215356642        0.4736072280        2.8051485021
 O          2.0538530425       -1.8540934376        0.7024722990
 H          2.4366132240       -2.3442015076        1.4604769696
 H          2.8103223309       -1.5578780513        0.1586281397
 O         -4.8912361348       -2.4835487885       -1.3667019812
 H         -5.5815750381       -2.7988965939       -0.7510596918
 H         -4.5573147591       -1.6589953646       -0.9856672288
 O         -2.5094376442       -2.0808651793        4.8963078969
 H         -1.6474723838       -1.7926279022        5.2128711045
 H         -2.3373442811       -2.5499990335        4.0644479999
 O          2.9541479945       -1.9045169346       -2.0879385611
 H          2.1729323858       -2.3711974922       -2.4712154582
 H          3.5303330828       -1.6607375656       -2.8294069044
 O         -3.2093723268        2.2365475738       -2.6653260347
 H         -2.8003549507        2.7550808029       -1.9616396469
 H         -4.0184250395        2.7272083697       -2.9172188235
 O          0.1080529430       -1.4758406067       -5.3200180884
 H         -0.5896853499       -1.7685965722       -4.6939090093
 H          0.7043150588       -2.2216916873       -5.4010907015
 O          4.5868769356       -3.7497430008       -1.0222705186
 H          3.9318784004       -3.0726634404       -1.3205578244
 H          4.9524147526       -3.4360471964       -0.1778238172
 O         -2.8210158694       -4.1259188934       -2.0253269745
 H         -3.6402423650       -3.6437033698       -1.8109690909
 H         -2.4370405689       -4.4014421836       -1.1801588630
 O         -6.7722641166        0.4553973027       -1.2307581338
 H         -7.3444093977        0.1480214522       -0.5021549145
 H         -5.8674964769        0.2109445190       -0.9350119844
 O         -5.9170218168       -1.0331968148       -3.4634401403
 H         -5.6403062851       -1.7646035029       -2.8835830865
 H         -6.4074483619       -0.4303127497       -2.8857846170
 O          1.9759199742        5.9107015144        0.8987675286
 H          2.1524555555        5.6818016572       -0.0231176723
 H          1.1060730248        5.5243008700        1.0922028610
 O          3.8523422808        1.1992341439        1.4624225326
 H          3.1983267312        1.8373304935        1.1039668903
 H          4.7308593057        1.6352494621        1.4409886503
 O          1.9308886621        2.6504474878        0.2788172388
 H          1.7470873545        1.9101560352       -0.3242021472
 H          2.1695044579        3.4040571130       -0.3062982994
 O          4.2309233037       -0.6648831216        3.3405958229
 H          5.1885478989       -0.7203111028        3.2190479575
 H          3.9575797343        0.0449523326        2.7213084277
 O          4.9409810082        4.0391508892       -0.1033375023
 H          4.6821545801        3.4656923017       -0.8435104647
 H          4.6409296922        4.9189167044       -0.3399734972
 O          1.9007424842        2.3246363552        3.2916239149
 H          2.5614673125        2.9815650779        2.9613317520
 H          1.1467502172        2.8386922729        3.6009177119
 O          0.5247048271       -3.0432374720        3.6560510000
 H         -0.3097693487       -3.1366831604        3.1662820670
 H          0.3982544134       -2.3314394725        4.2989163596
 O          6.5741377763       -2.7457842735       -2.4349892439
 H          5.8453859554       -3.2034028343       -1.9376273988
 H          7.1523775341       -3.4318967345       -2.7678479976
 O          0.9079032641       -4.0915678217       -0.3553174453
 H          1.5990222607       -4.7090074367       -0.0292452168
 H          1.2014410514       -3.2145912032       -0.0351691098
 O         -0.7395254600        3.2287810796        3.8434065291
 H         -1.5000094047        3.6178126857        4.2748674403
 H         -0.9235379446        2.2665975375        3.7395628049
 O          3.0274767622       -5.3013972362        0.6761185624
 H          3.6653250615       -4.9585061127        0.0244865032
 H          3.1810803428       -4.8249507487        1.4983080068
 O         -1.4890326382       -4.8963413507        0.3628878568
 H         -0.5928239315       -4.5770074052        0.0834948434
 H         -1.4379615194       -5.8518552779        0.3919901897
 O          5.4510495861       -2.9606071367        1.4337856666
 H          4.7542303668       -3.1541705681        2.0744897902
 H          6.1082390742       -2.4095991995        1.8768804489
 O          4.8416221753       -1.3170222085       -4.0075347453
 H          4.9244706230       -1.7606371312       -4.8523704646
 H          5.5672577167       -1.6494864654       -3.4430843832
 O         -7.7128823512       -0.1160085354        1.2599892197
 H         -6.9097518513       -0.3659133117        1.7491935058
 H         -7.8674707461        0.8024008723        1.5250267456
 O          2.3703744693        0.3791100293        5.0771480094
 H          2.2180600773        1.1586355358        4.5001816371
 H          3.1142748175       -0.0870430964        4.6663166384
 O         -3.6166119841        0.2577971211        4.0993536393
 H         -2.7534656555        0.5036960003        3.7224932221
 H         -3.4232408782       -0.5730632942        4.5760543295
 O          6.7675702262       -0.6080243508        2.0584633571
 H          6.7433898942        0.3571301913        2.0108511559
 H          7.2539882896       -0.8629277119        1.2481591869
 O         -6.6503711154       -3.0463805007        0.5977333321
 H         -6.0905708101       -3.2838025272        1.3475227751
 H         -7.1960418256       -2.2986197742        0.8601835078
 O         -4.9384378879        2.5757776396        3.1161972205
 H         -4.4614820167        2.5660464411        2.2630917891
 H         -4.6087060112        1.8199930387        3.6174467330
 O         -1.6210773264       -2.1763544310       -3.4099039323
 H         -2.3078237153       -1.4941517368       -3.5551590758
 H         -2.0891140669       -2.9576879421       -3.0465360760
 O         -5.3182125131       -0.8041309934        2.3675376638
 H         -4.7571769683       -0.3274901963        3.0165727188
 H         -5.1185210057       -1.7515792479        2.4977699147
 O          3.0766371890       -3.0639360703        2.8539162433
 H          2.1855643270       -3.2019083143        3.2353040129
 H          3.4067168485       -2.2225860895        3.2292805139
 O          6.1108555371        0.8755932578       -1.3307996336
 H          5.5386462497        1.5127482492       -1.7962724045
 H          5.5055379832        0.1536781147       -1.0580322967
 O          7.7613517384       -1.1554642880       -0.4218806126
 H          7.4020415097       -1.7984158498       -1.0521868951
 H          7.5626386233       -0.2976437200       -0.8184132896
 O          0.8834057963        0.3650575556        1.7011007030
 H          1.4089477653       -0.4104892418        1.4187396717
 H          1.4728529844        1.0323223483        2.1003420316
 O         -0.0734116746        4.1229792742        1.3455443797
 H         -0.3312459369        3.8762397637        2.2491316158
 H          0.6264835782        3.4911483878        1.0724840267
 O         -7.3903431211        2.5587173793        2.0759712782
 H         -6.5047758375        2.5395208811        2.5187359265
 H         -7.9347213601        3.1497776056        2.5952271713
 O          6.3670053981        2.0012962464        1.0809213322
 H          6.3022940971        2.9515558750        0.9435459831
 H          6.3986666306        1.6128390601        0.1728448143
 O         -5.5479621414        3.5044527439       -3.0402514212
 H         -6.1832931835        3.0023157198       -3.5532418857
 H         -5.8891952188        3.5378484702       -2.1322254630
 O          2.2230065487        0.6496684281       -1.5202918792
 H          1.6972963108        0.7128612066       -2.3424558082
 H          2.5729188287       -0.2605937242       -1.5280462610
 O         -0.0196045446        4.3077964786       -2.6331881032
 H         -0.2270613979        3.7182302646       -3.3724945501
 H         -0.6835097335        4.1231585999       -1.9507830659
 O         -4.6435875601       -3.3843074705        2.6952567451
 H         -3.6699941744       -3.3691443632        2.5274319381
 H         -4.7559703559       -3.7233054419        3.5842368858
 O         -3.9542647708        2.4482093977        0.5868162252
 H         -4.7614518589        2.7958842182        0.1466875859
 H         -3.1821684176        2.9011820825        0.1886456825
 O          0.8858800285       -3.2758853203       -2.9539901911
 H          0.8224903997       -3.7785565894       -2.1232137673
 H          0.0237161293       -2.8452259528       -3.0556793360
 O          3.5119074957        4.1838106275        2.3142701050
 H          4.1223529155        3.9907742694        1.5882493168
 H          2.9467042330        4.9017189961        1.9615901954
 O          4.4348506293       -0.8341020486       -0.0922879612
 H          4.1876431118       -0.0633021573        0.4722179693
 H          4.9979208488       -1.4054459108        0.4503413619
 O          3.6968828183        1.2619013607       -4.5505198488
 H          2.7389422973        1.0910324752       -4.4595549264
 H          4.1355430678        0.4130371546       -4.4061202023
 O         -3.4105005999       -0.2266997470       -3.9324902069
 H         -3.3623164406        0.6028012121       -3.4339099773
 H         -4.3485925475       -0.5175791866       -3.8880476873
 O         -1.7291413305        3.4015824025       -0.5743731256
 H         -1.2826606509        2.5256211376       -0.6191672829
 H         -1.2317470787        3.8653025482        0.1355537336
 O         -0.9892454703        2.3078707921       -4.3085981486
 H         -1.2645867878        1.8341943788       -5.1236104357
 H         -1.7704608145        2.2542881437       -3.7281241052
 O          0.1720289146       -0.9156022008        5.4674420789
 H          0.1005764835       -0.9570715155        6.4217169791
 H          1.0448642942       -0.4411240806        5.2996357288
 O         -1.8394192563        0.5075885904       -6.0907779936
 H         -2.5108562415        0.1757840587       -5.4679108901
 H         -1.1491216481       -0.1650907069       -6.1144427359
 O          1.0892084489        0.6686685814       -3.9421539592
 H          0.3757743985        1.3371969680       -4.0412887430
 H          0.7873635717       -0.1055400629       -4.4546046238
 O         -1.9830922643       -3.1915499819        2.3922107523
 H         -1.9428080608       -2.3473494751        1.8140891914
 H         -1.8251045909       -3.9114118486        1.7522536818
