  86
       -142.08604727
 H          4.3843864256        1.1696899795       -0.2964060125
 C          3.7118830974        1.7930929830        0.2983587208
 H          4.3002285972        2.3318344645        1.0525977357
 C          2.6730205929        0.9084638960        0.9964128466
 H          2.0178720628        1.5337749484        1.6079259336
 H          3.1894089219        0.1954104974        1.6401745205
 N          1.8363715724        0.1599519232        0.0631725157
 H          1.3969621719        0.8055977422       -0.5879408161
 H          2.4279935497       -0.4582218286       -0.4831537755
 O          3.1212470109        2.7014740993       -0.6026920572
 H          2.3857444514        3.1817534509       -0.1441559022
 O          2.1366493121        2.0397206139       -3.0237625788
 H          1.8842524062        2.9461053944       -3.2865847378
 H          2.6331083423        2.1736138849       -2.1890648322
 O          1.2753030083        4.6082477862       -2.9307358755
 H          1.8069805219        4.9281564811       -2.1978053123
 H          0.3830423507        4.4840119333       -2.5751396910
 O         -0.8942699083       -2.6981532179       -0.7377076036
 H         -0.1469936553       -3.2618059970       -1.0127668122
 H         -1.6523052296       -3.2549827945       -0.5172035429
 O         -0.2110536938        0.3449165240        4.4179220610
 H          0.2849607715       -0.4626281186        4.1730037022
 H          0.1943179972        0.6985952549        5.2094683216
 O          0.9531270521        3.8716758787        0.4564013466
 H          0.5615935966        3.3142921325        1.1472144560
 H          0.2819073019        3.9172761722       -0.2523264286
 O          1.3497540854       -3.8784427770       -1.5786561824
 H          2.0935706069       -3.5358363308       -1.0094664611
 H          1.6457052493       -4.7238282541       -1.9166273828
 O         -4.2275365601        1.5924730315        2.0717236298
 H         -4.8562019086        1.0565380845        1.5479318153
 H         -3.5305272436        0.9696969831        2.3344928117
 O         -1.6792709387        0.7630150529        0.0763532052
 H         -2.1560931320        1.6172465989        0.1522130048
 H         -1.0567916791        0.8654246427       -0.6641698547
 O         -5.5402412559       -0.3357369710        0.6770362278
 H         -4.9560491685       -0.4192121838       -0.1008983825
 H         -5.2784428952       -1.0553687592        1.2668631546
 O         -0.9655352077        3.7300345416       -1.4970998971
 H         -1.7593407869        3.7138490050       -0.9452266185
 H         -0.8187899192        2.8146213986       -1.8043016670
 O          4.4103819492       -0.9661514188       -1.5279291320
 H          5.3359489635       -1.0904352212       -1.7373973967
 H          3.9685016392       -0.7531116325       -2.3977913561
 O         -3.4991578730       -0.8720826628       -1.0571433560
 H         -2.8457034573       -0.3048181700       -0.5904801818
 H         -3.3522795502       -1.7692282322       -0.7263544958
 O         -0.1929010151        1.1953991801       -2.1200038648
 H          0.6638597092        1.4297289522       -2.5502951214
 H         -0.5603374443        0.4280174035       -2.5996300288
 O          3.2460393635       -0.3876798294       -3.7928065812
 H          2.4892604652       -0.9981849007       -3.8889944884
 H          2.8703262834        0.5017243579       -3.7001723479
 O         -4.1687768738       -2.2107999100        2.3565135021
 H         -4.5503579574       -2.4064600977        3.2123246067
 H         -3.4757144270       -1.5246819547        2.5061000369
 O         -1.4010311585       -1.0910539043       -2.8777601167
 H         -2.3328617578       -0.8763937661       -2.7318660428
 H         -1.1652279813       -1.6399342336       -2.1022352488
 O          0.8615785658       -1.9921515155        3.5037009131
 H          0.4113855068       -2.8085467930        3.7234038068
 H          0.4960384258       -1.7037410503        2.6079107312
 O         -0.3284873703        2.0633089350        2.1286361976
 H         -0.6950035985        1.4346444602        1.4801473301
 H         -0.2532513600        1.5739648272        2.9574346655
 O         -3.4064546499       -3.5071689590        0.0892991845
 H         -4.1957219722       -3.9139510663       -0.2707147781
 H         -3.6599563095       -3.1223826322        0.9499449906
 O          3.3981462989       -2.1055208697        2.4652043204
 H          3.9654023205       -2.6109072617        3.0477297762
 H          2.5255192640       -2.0418851689        2.8949854330
 O          3.3617726204       -3.0321466017       -0.1557669164
 H          3.3191973285       -2.6956425222        0.7548431642
 H          3.7818832925       -2.3133000207       -0.6726408638
 O          1.1154570030       -2.0789409000       -3.7444419100
 H          1.2046707137       -2.6948883139       -3.0000342733
 H          0.2250435174       -1.7123326754       -3.6902754084
 O         -2.2912598653       -0.3648064576        2.6962427258
 H         -1.6169192444       -0.5169712174        2.0004739067
 H         -1.7909603708       -0.0897412211        3.4752024480
 O         -2.6718161826        3.1823460661        0.6631414603
 H         -2.0041621761        3.3806568460        1.3297502244
 H         -3.4077325135        2.7510801799        1.1637133075
 O         -0.0999955732       -1.1375805628        1.2895450362
 H          0.6362309535       -0.6014203794        0.8596212721
 H         -0.4106437456       -1.7288736613        0.5777237005
