  144
       -244.35800928
 O         -0.6348752405       -4.0053398938        2.0431761851
 H          0.2742443391       -4.2021698065        2.3308393118
 H         -0.6132179652       -4.0595771465        1.0687350453
 O         -5.9738658533        0.8048597953        1.3578264645
 H         -5.9158731069       -0.1653638817        1.3105130415
 H         -5.2500318476        1.0784963883        1.9446704195
 O          5.6647799452       -2.6518673316       -1.5117247932
 H          6.1356207616       -1.8219700913       -1.3413973449
 H          4.9007330162       -2.4333919118       -2.0749945705
 O          5.1781241468        0.2473798054        1.3241373090
 H          4.7609811380        1.0630892138        1.6413773784
 H          4.9440972001       -0.4645592027        1.9511590222
 O         -0.7306187297        0.1422428738        5.4047525930
 H         -0.4230497978        0.7863244849        4.7354540170
 H         -0.0305179797       -0.5131005261        5.4636306125
 O         -2.5849067167       -0.7263029943        3.6634457162
 H         -3.0386453595        0.0685277815        3.3459213820
 H         -2.1121218622       -0.4630987501        4.4786430832
 O          5.4526169433        1.2460128261       -2.3799496875
 H          5.3632587396        2.0881319508       -1.8843091704
 H          6.2093906448        0.7861856433       -1.9906156504
 O         -2.9375002846        3.8803362495        1.8631486369
 H         -1.9415191766        3.8410827844        1.7910235172
 H         -3.1415675901        4.7367518907        2.2400827006
 O          0.0826699821        5.2802929243       -2.3910182595
 H         -0.2947756678        6.0569744274       -1.9776702420
 H         -0.6089528981        4.5896279240       -2.3620329685
 O          2.3843376120        4.1102830323       -1.5548775913
 H          1.6566919467        4.6516626249       -1.9148936916
 H          2.2736017518        3.2407707916       -1.9693648434
 O         -5.0612733832        0.8980142380       -3.5435841976
 H         -5.2768143528       -0.0593617540       -3.5406657465
 H         -5.4310230808        1.2758434590       -2.7328926278
 O         -1.8233455058        3.3632705589       -2.1004372496
 H         -2.6600343043        3.6204493390       -1.6453162760
 H         -2.0749630977        2.7440966613       -2.8096426581
 O          3.5341780832        0.1909731721       -4.1407866764
 H          2.8555078425        0.7984218696       -3.8123873676
 H          4.3680729532        0.5457726650       -3.8023906212
 O          1.3089055354       -3.7898807933       -2.5388830491
 H          1.9934276672       -3.0780669406       -2.4855750018
 H          1.7388886256       -4.5349900729       -2.9581383995
 O         -5.4787989025       -1.8689219518        1.1268710658
 H         -5.7973390579       -2.4446535391        0.4142109028
 H         -4.8180680601       -2.3687866141        1.6251954636
 O          2.2176407044       -0.8826279884        4.1313406220
 H          1.4046735470       -1.0651744730        3.6087228396
 H          2.9329971638       -1.3270307835        3.6490932522
 O         -0.3503143110        0.0595096948       -2.8806434637
 H         -0.3286380938       -0.7959292594       -3.3881385307
 H         -1.1180863599        0.5438370605       -3.2300361055
 O          0.0042304917        2.3107365746       -0.4835860049
 H          0.7195762585        2.1952618931       -1.1393023734
 H         -0.7404659309        2.6596473289       -1.0186377332
 O          4.4470078706       -1.8852726889        2.7694352083
 H          4.9628348215       -2.4421279086        3.3515592546
 H          4.2830755574       -2.4237846652        1.9428328721
 O          3.5623588722        0.1174100293       -0.8678288576
 H          4.0015042935        0.0663170145       -0.0011966334
 H          4.2485154515        0.4840726915       -1.4715100647
 O         -2.5165392261        1.4236220259       -3.8770316770
 H         -2.4264621900        1.5280217574       -4.8246384786
 H         -3.4719330085        1.1894377084       -3.7230746390
 O         -0.7126541761       -3.8887586799       -0.6832978178
 H          0.0370349519       -4.0170476235       -1.2857643627
 H         -0.8860099483       -2.9267728216       -0.7066577193
 O          1.7004624082       -1.7987879282        0.4266743910
 H          1.7671201782       -0.9168250820        0.8366819280
 H          0.8105348493       -1.7984147999        0.0435945764
 O         -4.0156642777        3.8716759071       -0.7197955877
 H         -3.7148827942        3.8126492476        0.2006836760
 H         -4.6657761283        3.1583731361       -0.8532716616
 O          4.0656858458       -3.2085731369        0.5461348482
 H          4.7408729402       -3.0962795686       -0.1599989814
 H          3.2695764611       -2.7537335788        0.2250234498
 O          1.5249728988        0.7740719510        1.2776181283
 H          2.3363019203        1.3078456874        1.4014983622
 H          0.9951696998        1.2182971638        0.6010545073
 O         -3.1943814731       -3.0492873602        2.2855651336
 H         -3.0786427291       -2.2720439615        2.8573776925
 H         -2.3508536168       -3.5268628351        2.3539213691
 O         -5.4350945580       -1.7706751636       -3.3214660617
 H         -5.8304967911       -2.2040603596       -2.5538825221
 H         -4.5007045354       -2.0501521428       -3.3009453076
 O         -5.8740986823       -3.4986780430       -1.0742263630
 H         -4.9642882755       -3.8194890615       -0.9181142003
 H         -6.4227401955       -4.2755695687       -1.1830048367
 O          2.8212819305        1.6264441231        4.4370847489
 H          2.6279773702        0.6481380065        4.3161003670
 H          3.1862157640        1.7220894546        5.3156645800
 O          2.0046842890       -3.7586320428        2.3593742455
 H          2.7275210461       -4.2407302480        1.9519979569
 H          1.8694541811       -2.9793281058        1.7830579730
 O          2.2694792824        4.4888164682        1.1529797688
 H          2.2895608816        4.4333897144        0.1778288426
 H          1.3362523992        4.4147748276        1.4123338068
 O          1.7928510853        1.5056835540       -2.3268152650
 H          1.0410462389        0.9424580168       -2.6184590719
 H          2.3347311540        0.9579932524       -1.7243739024
 O         -2.9050309652       -2.4462283460       -2.5451589048
 H         -3.0238752366       -3.2059901774       -1.9628328583
 H         -3.0501965884       -1.6565042321       -1.9520310941
 O          3.1995908816       -1.9346746924       -2.5250133648
 H          3.1356315585       -1.3355881077       -1.7529651009
 H          3.2651169084       -1.3252420388       -3.2912086620
 O          6.9435271801       -0.2906807514       -0.6518125555
 H          6.3561306563       -0.0691781755        0.0990009110
 H          7.8231926369       -0.4026229125       -0.2928136121
 O         -5.9027938179        1.8827784664       -1.0297854313
 H         -5.9233247938        1.4442457208       -0.1354413925
 H         -6.7638446090        2.2881981257       -1.1374603291
 O         -0.5734742348       -2.3004546681       -3.9465233980
 H          0.0504542631       -2.8957400006       -3.5004689228
 H         -1.4453615484       -2.4500928581       -3.5313300862
 O         -3.8960484332        1.6481234382        3.0123898409
 H         -4.2264974743        1.9331399486        3.8657412163
 H         -3.5049071128        2.4383207535        2.5818076922
 O         -3.3740538462       -4.2043597662       -0.2993198492
 H         -3.3941578368       -3.8124249313        0.5880946980
 H         -2.4322191807       -4.3793854226       -0.4646662283
 O          3.5961479643        2.3780256358        1.9282921117
 H          3.4379729106        2.2539750253        2.8798577107
 H          3.1527721221        3.2361224445        1.6912123594
 O         -0.3346452027        3.7092730031        1.7368421418
 H         -0.2157174000        3.2157554119        0.8934195283
 H         -0.1480023033        3.0541895043        2.4462201280
 O          0.2968763141        1.7483521845        3.4478796306
 H          0.5798383262        1.1323909973        2.7350958797
 H          1.1263813701        1.9558960016        3.9116092724
 O          4.9205052535        3.2870185423       -0.7138537607
 H          4.1611040681        3.7777114613       -1.0606415337
 H          4.6634023971        2.9905877971        0.1651898537
 O         -0.0372708010       -1.3691255061        2.7702548592
 H         -0.9047478837       -1.0652522617        3.0782589240
 H         -0.1692056729       -2.3009219692        2.5290447366
 O         -0.8692860741       -1.2228978778       -0.5700927478
 H         -1.8000042629       -1.0197821181       -0.3810633557
 H         -0.6506357600       -0.7266408343       -1.3871220959
 O         -3.5655831576       -0.6530677145       -0.6103040975
 H         -4.2980310521       -0.9817101869       -0.0660521778
 H         -3.3611902462        0.2433703113       -0.2916958140
 O         -2.2295257708        1.2305679531        0.7187494415
 H         -1.9975273894        0.7690583579        1.5257556874
 H         -1.4042009352        1.3971737642        0.2457465180
