  147
       -244.15370088
 H          0.8349152364        1.0364357917       -1.1255369406
 C         -0.1143447336        0.6702412595       -0.7363678620
 H         -0.9179745894        1.2619526514       -1.1750300673
 C         -0.1137287953        0.8031157963        0.7821733831
 H         -0.1273874546        1.8632472663        1.0255537735
 H          0.7842201149        0.3544021918        1.2020547664
 O         -0.2459024752       -0.6866133349       -1.1404690431
 H         -1.1981746771       -0.9353940249       -1.0341324885
 N         -1.3049630924        0.1552238513        1.3556770636
 H         -1.3357078361       -0.8571942634        1.1137152335
 H         -2.1622574644        0.6328334503        0.9781431216
 H         -1.2877547756        0.2187801310        2.4022452046
 O          2.8411469643        1.1420702552        1.1061839776
 H          2.6675088317        1.9871739079        0.6537845387
 H          3.2574870450        0.5627030827        0.4419618472
 O          1.7511545658       -1.9934774865        0.0955647637
 H          0.9761776253       -1.5796151620       -0.3297487965
 H          2.5342440257       -1.5256228024       -0.2708262759
 O          4.0576335748        1.5722519936        3.4032700139
 H          3.6224469148        1.3786826079        2.5337711080
 H          4.3132726978        2.4976359864        3.3402235176
 O         -6.2827887776       -1.6718340799       -1.3142752013
 H         -6.0256894534       -0.9323597186       -0.7059758948
 H         -7.2044326379       -1.8632707753       -1.1345517130
 O          2.2425081467        3.5357850286       -0.0925238506
 H          1.3262272300        3.7436073376        0.1558837830
 H          2.8076844102        4.0259374246        0.5206280416
 O         -0.7809507299        3.5366700151       -1.9217357698
 H         -0.6435616527        3.7845672036       -0.9993022897
 H         -1.7362120159        3.5570115466       -2.0759698695
 O          3.6391645613       -0.4444005076       -0.8952133415
 H          4.5998607155       -0.5017897230       -1.0523989854
 H          3.2678769991        0.0052434391       -1.6843891968
 O          1.2920602435        3.4192851413        2.9503350711
 H          1.2942956879        2.4949093073        3.2456283139
 H          2.2085563854        3.6395512925        2.7448647165
 O          1.7923564905        3.2987062620       -2.7827206682
 H          2.1177879866        3.5068315766       -1.8911640958
 H          0.8299920264        3.4073512419       -2.7178351406
 O         -2.8681583115       -1.0916405060       -0.9491242207
 H         -2.8841591045       -1.9444889758       -1.4337532744
 H         -3.0825901904       -0.4231818371       -1.6354187625
 O          5.3385758081       -2.6444654029       -2.4494482956
 H          5.7549888165       -1.7931581034       -2.2189077195
 H          5.9881671550       -3.1492798509       -2.9397794610
 O         -3.9064388193       -1.1659183631        1.5863963495
 H         -4.0139895752       -2.1111906646        1.7479677491
 H         -3.6689169119       -1.0905665946        0.6452757903
 O          5.4618856191        2.8120334575        0.1926972991
 H          5.2167944089        2.6310088333       -0.7267519802
 H          6.0717287678        2.0998883932        0.4515563989
 O         -5.8187898377       -0.2090636892       -3.5588840091
 H         -5.9877120095       -0.8153901852       -2.8069235420
 H         -6.2783816795       -0.5632255181       -4.3203271489
 O         -2.5454231778       -3.1896722092       -2.5551467645
 H         -1.7899972058       -3.6512455571       -2.1458682196
 H         -2.2041408225       -2.7020041003       -3.3261877874
 O         -6.1082830654        2.1282766087       -1.9386995648
 H         -6.1448468770        1.5061834940       -2.6776498458
 H         -5.2472906457        2.5858511558       -2.0221972744
 O         -5.7506226026        0.4997870958        0.0692069694
 H         -6.0075953086        1.1727276310       -0.6172710428
 H         -6.1496238340        0.7587762832        0.9160652651
 O          2.0433366697       -1.5705074816        2.6681724542
 H          1.8853939968       -1.6865639988        1.6996810675
 H          2.9499973048       -1.9063435466        2.7827068374
 O          6.2547871694       -0.2483947314       -1.5771240394
 H          6.0642070403        0.5848428530       -2.0383037700
 H          6.6685435124        0.0061006409       -0.7286203808
 O         -3.4735925529        2.8429761506       -1.9891342267
 H         -3.3437352618        2.4528521535       -1.0983878140
 H         -3.2602743881        2.1199907834       -2.6000105524
 O         -1.1113852065        0.0154426967        4.0453047831
 H         -0.8990921745       -0.9338040971        4.0860718248
 H         -0.2707953821        0.4700496798        4.2318432921
 O         -6.4372182747        1.2527945662        2.6360361320
 H         -5.6669655897        0.9347807130        3.1322045709
 H         -7.2147300349        1.0267263472        3.1472215800
 O          4.5780115475       -3.7558301975       -0.0170906399
 H          4.8794944464       -3.3225620831       -0.8334889406
 H          3.7864272568       -4.2481525067       -0.2667577288
 O         -0.7895322625       -4.3739138580       -0.8545218660
 H         -0.8246124150       -3.6942911316       -0.1468722236
 H         -1.2650759596       -5.1382733481       -0.5262292753
 O         -3.3527634774        1.5842898944        0.3779115706
 H         -3.5778151318        2.2295222703        1.0797811658
 H         -4.1645596684        1.0385511521        0.2633955202
 O         -1.2404908840       -2.6282278910        1.1688075394
 H         -2.1281679009       -3.0140165618        1.2773383274
 H         -0.8099970225       -2.7129190213        2.0388096539
 O         -4.2253108784        3.0764539130        2.4138413275
 H         -3.9745810043        2.3494438094        3.0193553723
 H         -5.1876551592        3.0705019055        2.3957267031
 O          7.1170525205        0.6999864544        0.7864044640
 H          6.6762677887        0.2840940261        1.5843209495
 H          8.0374219557        0.8170097786        1.0217529352
 O          1.9962116438       -4.4128087432       -0.9750151528
 H          1.8984474521       -3.5586916386       -0.4976762744
 H          1.0913139517       -4.7244550372       -1.0973955752
 O          2.7102712089        0.8714576692       -3.0215350818
 H          2.2805038348        1.7664991050       -3.0022323973
 H          2.1069121271        0.2778661642       -3.4988868476
 O          0.8582744868       -1.0660107100       -3.6105676064
 H          1.4964169704       -1.8178527598       -3.5576982783
 H          0.5364031578       -0.9326995154       -2.7009432250
 O         -0.1529173606       -2.5470509436        3.6677983051
 H          0.7351430971       -2.2124557314        3.3661448532
 H          0.0137382733       -3.2162261249        4.3311693264
 O         -1.5869575893       -1.4855042746       -4.4832922133
 H         -0.6385054327       -1.3255068775       -4.2307040885
 H         -1.5910666150       -1.6182682996       -5.4313295174
 O          5.1045815551        2.0674815284       -2.5139864238
 H          4.2659531420        1.6436284439       -2.7768575771
 H          5.2314596677        2.8034835268       -3.1135319538
 O         -0.2963958612        3.9461636384        0.8572748609
 H          0.1292577041        3.9188440349        1.7371490510
 H         -1.1286900971        4.4416976240        0.9548572676
 O          5.9479456721       -0.2975822155        2.8696451146
 H          5.3089340017        0.3719956686        3.1863254579
 H          5.4287310980       -1.0927795205        2.6634167646
 O          2.6288832054       -2.9881934427       -3.2120496213
 H          3.5564006307       -2.7547804506       -3.0691524218
 H          2.4078079642       -3.6128394841       -2.4944520871
 O         -4.7023483903       -3.9169662075       -1.0126870531
 H         -4.0240286277       -3.8342575250       -1.6997365714
 H         -5.2869774069       -3.1478970329       -1.1277286941
 O          1.4880021749        0.7850207342        3.9390954057
 H          1.7020254858        0.0035619557        3.3941759683
 H          2.3580245707        1.1007109816        4.2246624981
 O          4.5195865994       -2.6204222599        2.3775093881
 H          4.9794893374       -3.2753136557        2.9040289662
 H          4.5323680553       -2.9679573419        1.4515255725
 O         -3.8265311779        0.6594885788        3.5567968901
 H         -2.9995494346        0.5136032669        4.0332560312
 H         -3.8461973362       -0.0191332960        2.8510898105
 O         -3.1733130561        0.3619744889       -3.1582424344
 H         -4.0862796066        0.1818198263       -3.4408810971
 H         -2.5920168956       -0.1843228357       -3.7162621048
 O          4.0222319758        4.0807966125        2.0115820413
 H          4.4678793109        4.9145487495        2.1620262282
 H          4.5784536724        3.5823962618        1.3640164167
 O         -2.8196210392        4.9347106599        0.8425877909
 H         -3.2981553020        4.8802680550        0.0126572778
 H         -3.3383758164        4.4631639855        1.5084194714
 O         -3.6541130332       -3.8935278535        1.3815143818
 H         -4.0598198196       -3.9379306220        0.4724382510
 H         -3.9681809455       -4.6627837379        1.8557410157
