  146
       -243.93079638
 H         -2.1749770412       -0.5006204646       -1.5953266336
 C         -1.7318318502       -0.5164747906       -0.5986808209
 H         -1.9829856112       -1.4631269335       -0.1106356045
 C         -2.2949555361        0.6285591609        0.2294602371
 H         -1.6683944943        0.7395916505        1.1192523971
 H         -3.3074222702        0.3785543498        0.5418969996
 N         -2.3831309085        1.8519908599       -0.5577769714
 H         -2.6385677329        2.6253178329        0.0508628677
 H         -1.4859516189        2.0600773531       -0.9768957099
 O         -0.3222354908       -0.3886049836       -0.7066012872
 H         -0.0074539494       -1.1229886604       -1.2617290369
 O         -4.0683821688       -4.2031298003       -0.1653324665
 H         -3.4789806347       -4.0830914193       -0.9245448383
 H         -3.5154566327       -4.1413437615        0.6298172432
 O          4.6382409511       -1.7768490131        1.4318510364
 H          4.0131239096       -1.3018826992        0.8443000261
 H          4.9109904520       -2.5597610068        0.9351505698
 O          0.8547523770        1.4671744317        4.8770608458
 H          0.7675849912        1.7017558877        5.8004813651
 H          0.3059666121        0.6542022164        4.7371294760
 O          0.7188927926       -0.9843966544        1.9874362644
 H          1.4549446656       -1.3421878944        2.5343318668
 H          0.3235616584       -1.7519339969        1.5308490156
 O          0.4587958293        3.5665972147       -1.3410481520
 H          0.5072724154        2.9261285347       -0.5867952355
 H          1.3797106759        3.8232127228       -1.4810026699
 O          0.1018782745       -2.6949950829       -2.1878812135
 H          1.0385813457       -2.9610554450       -2.0348984639
 H          0.1043480233       -2.2380551200       -3.0546225900
 O          5.2103792995        0.6475259453       -0.4749871645
 H          5.9486410768        0.9946862143        0.0729786324
 H          5.1764666497        1.2156004439       -1.2667777037
 O         -0.1244512692       -3.2333996693        0.7307095986
 H         -1.0453014631       -3.3182243614        1.0891747362
 H         -0.1754116862       -3.1930057335       -0.2288299447
 O          1.3075207817       -4.3134680367        2.7635051361
 H          0.8704350373       -3.9944976340        1.9489571307
 H          1.2657483533       -5.2692086762        2.7449568717
 O          5.8813664107        0.1226635156        3.0377441729
 H          5.0886653048        0.5122167002        3.4308264502
 H          5.5600112727       -0.6116032340        2.4883397480
 O          3.3092384314        1.7280677471        1.1223596934
 H          3.3477992978        1.4184085926        2.0462823474
 H          3.9497045515        1.1902069722        0.6136281782
 O         -0.6873325314       -0.6070191567        4.2281123517
 H         -1.5235405241       -0.1328117867        4.0877517241
 H         -0.2663188629       -0.6741459022        3.3403456020
 O          2.6696934752       -2.9797306398       -1.6102071676
 H          3.0689792254       -2.4615534091       -2.3519564964
 H          2.5639577299       -2.2938203532       -0.9039301685
 O          1.1936799578        1.0901270693       -4.3240781733
 H          0.8580535529        0.1872965766       -4.4576759916
 H          0.4065792853        1.6477964096       -4.1869988812
 O          2.3858069012        0.8719307670       -1.9477907012
 H          2.6349717990        1.7739355370       -1.6753428540
 H          1.8612065133        0.9717120736       -2.7706201087
 O          0.7148161204        1.7946932376        0.5840478215
 H          0.4104310537        0.9512513070        0.2041627224
 H          1.6772004411        1.7159951283        0.7713453377
 O         -3.8928065294       -1.1640106108        2.3271137581
 H         -4.7813962642       -0.9274128706        2.6872107163
 H         -3.3190395777       -0.4523504493        2.6623951916
 O         -2.6616376937        1.0434440332        3.3702681148
 H         -1.9565935116        1.6879794033        3.1584076705
 H         -3.4897715857        1.5009684993        3.1242612773
 O         -0.9795342667       -3.3784955988        4.1784586019
 H         -0.9088380677       -2.4288740638        4.3801830443
 H         -0.0973352677       -3.6657786672        3.9037525654
 O         -6.1997462443       -0.0425668541        2.9683721173
 H         -5.8743627685        0.8676623371        2.9646678426
 H         -6.7327861949       -0.1340227864        2.1621734683
 O         -2.6665966587        4.0380348921        1.5308609124
 H         -2.3645641367        4.5842683870        0.7916443486
 H         -1.8816275601        3.7614833887        2.0238390423
 O         -1.7019380647        5.1134354700       -0.8713416926
 H         -0.8868839704        4.5948536461       -1.0419517399
 H         -1.5189598336        6.0124146995       -1.1444093206
 O         -0.9660055332        2.4217189521       -3.3899532814
 H         -0.4168764570        2.8142073602       -2.6875507988
 H         -1.7447291796        3.0221021748       -3.4556965891
 O         -2.4427885471       -3.3984989211        1.9463457190
 H         -2.9982031663       -2.6044614427        2.0884031858
 H         -2.0321284744       -3.5535830113        2.8271171288
 O         -4.4695703569        1.6975761364       -2.1807046936
 H         -3.6585063492        1.6952092325       -1.5905303083
 H         -4.5452984501        0.8123297752       -2.5476627822
 O         -4.9680467761       -1.6988974933       -0.1104419071
 H         -4.5263115835       -1.4243069228        0.7176966471
 H         -4.8299670224       -2.6727644345       -0.1489223967
 O         -4.7710951266        2.3633562911        2.2968995555
 H         -5.2640585840        2.2486693100        1.4536755570
 H         -4.1987193962        3.1256082505        2.1289294048
 O         -7.2939467172       -0.5179754909        0.4292586978
 H         -8.0436171681       -1.0739736986        0.2192207488
 H         -6.4846271496       -1.0105888910        0.1606459087
 O         -2.4566779392       -3.5898707131       -2.4040683377
 H         -1.5332105416       -3.2920607057       -2.2943491706
 H         -2.4580310402       -4.2416646874       -3.1054369967
 O         -6.1065505855        2.0056196191        0.0009075862
 H         -6.6449260348        1.2056703991        0.0516474737
 H         -5.5965718719        1.9525650529       -0.8290952061
 O          4.9273472259       -3.8042172340       -0.4397109479
 H          5.1933971788       -4.6953333483       -0.6622200679
 H          4.0642843666       -3.6372129197       -0.8896903074
 O         -4.0664369391       -1.2152127070       -2.6328340541
 H         -4.4754195412       -1.2544566970       -1.7465418577
 H         -3.6284940211       -2.0728898591       -2.7218486175
 O          7.1012520472        1.5455791755        1.1659736465
 H          6.6893738783        1.1178479761        1.9562238738
 H          8.0006697045        1.2197136047        1.1293989081
 O          3.1931040775        3.3709040769       -1.1300890555
 H          4.0150574485        3.2381372053       -1.6272918333
 H          3.3604481877        3.0899108815       -0.2179038864
 O         -0.0633261474       -1.3644865396       -4.5138076690
 H         -0.0839743442       -1.7398403297       -5.3937052335
 H         -0.9153912706       -0.8435730679       -4.4082423279
 O         -0.5495216324        2.6738956866        2.7890298136
 H         -0.0772536661        2.3581259964        1.9907545487
 H          0.0271465684        2.4571124668        3.5369709264
 O         -2.1747377967        0.0848887720       -4.2304495848
 H         -2.9155270130       -0.2384799568       -3.6949443039
 H         -1.8740774714        0.9315992106       -3.8547822114
 O          3.8028647967       -1.1646181101       -3.1689909412
 H          3.4026575801       -0.4369521553       -2.6543186028
 H          4.7026237754       -1.3004483687       -2.7870911451
 O          2.5395088316       -0.9112175246        0.0078858229
 H          2.4637971921       -0.1970519617       -0.6554184469
 H          1.8153848269       -0.7793725082        0.6511947874
 O          5.1838885080        2.2920051840       -2.6711886366
 H          6.0399766718        2.5611308247       -3.0032595636
 H          4.7047735379        1.8868343762       -3.4445330274
 O          6.0177004910       -1.5725636137       -1.7690862425
 H          5.8235390150       -2.3733005274       -1.2615311779
 H          5.8085050105       -0.8179776240       -1.1804482906
 O         -3.1106928281        3.9534903724       -3.0810537186
 H         -3.7773875005        3.2797942399       -2.8678500009
 H         -2.8665402276        4.3668852740       -2.2396453253
 O          2.7701119986       -2.0398515855        3.3252892727
 H          3.5224525519       -2.0486971787        2.6927646929
 H          2.4290057792       -2.9436418796        3.3571657666
 O          3.9656813294        1.1231856013       -4.6995068594
 H          4.0176576381        0.1881379824       -4.4337525467
 H          3.0166037172        1.3144428526       -4.7410040287
 O          3.2080528874        0.7156977855        3.6580725763
 H          2.4489845951        1.1193620198        4.1117443948
 H          3.0429672721       -0.2375158511        3.6855496981
