  144
       -244.32387826
 O          0.7302977909        4.9900818862       -0.1283976726
 H         -0.1800710539        5.3045381183       -0.1345123875
 H          1.1557340173        5.3052128769        0.6727062818
 O         -0.6509368099       -3.0557688128       -1.0388379865
 H         -0.9020854813       -3.5160856518       -0.2334866482
 H          0.0515928785       -3.5960966784       -1.4631559222
 O         -2.0556921641        4.6662473415       -0.6996974713
 H         -2.9708156942        4.4925127925       -0.9843019368
 H         -1.5080053431        4.2471896107       -1.3895257830
 O          1.2556317195       -4.5777658113       -2.1829107876
 H          1.9872353931       -3.9337722631       -2.3619468722
 H          1.0973997462       -5.0306058318       -3.0117818023
 O         -1.9377056080        2.9110264745        1.2700715332
 H         -2.5757748710        3.0417406708        1.9862621611
 H         -2.0131696811        3.6525077976        0.6198658497
 O         -5.0611841544        0.7172040610        3.2491792035
 H         -5.8973251445        0.6613641096        3.7133663905
 H         -4.6157658485       -0.1586730584        3.3881191447
 O          5.7004786072        0.9467099564        0.9588132239
 H          5.6269317935        1.2009508209        0.0230829504
 H          5.2768213043        0.0825654629        1.0560989809
 O          0.6192483585       -1.7954149625       -4.0136264443
 H         -0.2996679306       -1.9599901494       -3.7494347068
 H          0.5858143760       -1.0163478132       -4.5821815310
 O         -4.5683394871        1.3953933298       -3.4485684725
 H         -5.0854537857        1.6438967487       -4.2154529512
 H         -4.7233023785        0.4294046138       -3.3101256470
 O         -1.9403148270       -1.7077771574       -2.9671560622
 H         -1.5691023527       -2.0898540785       -2.1521407658
 H         -1.8367570179       -0.7436638408       -2.9090003337
 O         -3.4115793422        2.8220399982        3.6286606411
 H         -4.0196868846        2.0594005773        3.5460064953
 H         -3.8850552744        3.5160582546        4.0881618558
 O         -1.0869469414        1.6308236270        4.6640757904
 H         -0.4401732236        2.0565483289        4.0743724846
 H         -1.9273569267        2.0582055204        4.4403523949
 O          2.8603635676       -2.5228134911       -2.6780626096
 H          2.8743320255       -2.2165236941       -1.7479399794
 H          2.0653406231       -2.1545731053       -3.1094925413
 O          2.0007173090        3.6147678996       -3.1586172747
 H          2.4679775909        3.4134466353       -2.3082680947
 H          2.1547295576        4.5451921209       -3.3242787713
 O          1.1285001975        0.2289578894        2.2599127674
 H          0.6018241981       -0.1983690494        1.5653165756
 H          0.7792773129        1.1457069602        2.3705095367
 O         -1.3024887352       -0.9878168498        4.4119904726
 H         -0.5454195559       -1.3320059122        4.8954982921
 H         -1.2603004795       -0.0031575649        4.5161293503
 O          1.5177693165       -0.4763684685        4.7516403456
 H          1.1812718505        0.2493526924        5.2816525313
 H          1.3072604335       -0.2514037440        3.8101214462
 O         -3.8852129904       -1.5952403956        3.6416578452
 H         -3.0200784525       -1.4709790402        4.0651439498
 H         -3.7791283955       -2.2989855580        2.9867002052
 O          0.1650812812       -0.6014198087       -0.2226991366
 H         -0.0163679969       -1.5237992939       -0.4695477627
 H          0.6494689331       -0.1798799517       -0.9641329498
 O          4.5577899099        2.4264538992        2.8043302351
 H          4.9782885656        1.9223532949        2.0569469008
 H          5.2670352428        2.9110717701        3.2277401647
 O          2.7930131508        0.8483471560        0.2684356260
 H          2.8614746886       -0.0626984282       -0.0707007439
 H          2.4172862109        0.7375874552        1.1614405204
 O         -0.5436860060        3.0785038466       -2.3672786990
 H         -0.2014407805        2.6897857039       -1.5116486247
 H          0.2758791966        3.3312947217       -2.8299039702
 O         -4.6568274371       -1.2222815563       -3.0098300046
 H         -4.9243089074       -1.6890742804       -2.2041313632
 H         -3.7504321039       -1.5252870235       -3.1888551862
 O         -4.3717571278        3.4833408167       -1.4359524989
 H         -4.6513189902        3.0022944415       -0.6451734933
 H         -4.5133317881        2.8866655763       -2.1805915846
 O          0.5833320258       -5.4998667835        0.3766294169
 H          0.8630388461       -4.6828400810        0.8461822895
 H          0.9830705885       -5.4392263096       -0.5017575701
 O          0.4112040806        2.2931818821       -0.1021694493
 H          1.2158275489        1.7553228989       -0.1717698976
 H          0.6964482697        3.2195522846        0.0117381979
 O          3.8802348297        0.0354584213       -3.0162609689
 H          3.6053193082        0.4687175351       -3.8514565624
 H          3.8052010857       -0.9263232865       -3.1286900775
 O          3.4085569085        3.1188279573       -0.9499000557
 H          3.1824246288        2.2525512351       -0.5493067176
 H          4.3184048451        2.9957776033       -1.2496797070
 O         -3.1506674093       -4.5200943404       -1.9348952163
 H         -2.6785292406       -4.9382204782       -1.1891294635
 H         -2.4981804226       -4.0545300468       -2.4640998452
 O         -1.9253057203        1.0417905439       -3.0401238775
 H         -2.8274511172        1.3050649475       -3.2993359122
 H         -1.4153553610        1.8818660072       -2.8365077425
 O         -0.1070317440        0.6949400164       -5.0411141451
 H         -0.4810397572        0.8453743699       -5.9095246899
 H         -0.8369682530        0.8003861043       -4.3937320428
 O          2.6470459811        1.5313528526       -4.8588224130
 H          2.5001133577        2.3374160955       -4.3320564815
 H          1.7721235464        1.2455572476       -5.1443439705
 O         -3.3019258658       -3.3313196061        1.4736001493
 H         -2.8979546822       -4.1793481860        1.2211636573
 H         -3.9278471751       -3.1122104393        0.7605968782
 O         -4.8627400418       -2.9038605672       -0.7725825869
 H         -4.2707224785       -3.5268672559       -1.2730516798
 H         -5.7189162020       -3.3323633025       -0.7316503142
 O          2.5768716664        3.9084268519        1.6508371521
 H          2.8415766578        3.8163614509        0.7220107072
 H          3.2639368094        3.4376511860        2.1551417422
 O          0.3833254596        2.7147101435        2.6731304841
 H          1.1507881126        3.2226722540        2.3353067372
 H         -0.3542707136        2.8477032841        2.0449408810
 O         -1.1244640135       -1.7373923940        1.8508717494
 H         -1.1351554575       -1.4436036758        2.7834471364
 H         -1.8924944059       -2.3224984528        1.7411567372
 O          2.6052865688       -2.8455511743        3.5239169424
 H          2.2984602743       -2.1769059736        4.1471210580
 H          3.3974680514       -2.4860982886        3.0991333163
 O          1.0999580197       -3.0845546686        1.3726559096
 H          0.2928264003       -2.5514481642        1.5601698934
 H          1.6132679653       -3.0961678387        2.2122885541
 O          4.7107281917       -1.5289850987        2.0439655112
 H          4.5258096865       -0.8989794365        2.7988641920
 H          5.5606193258       -1.9263419645        2.2368884889
 O          4.1569743740        0.0291249847        4.0516591837
 H          4.1930692387        0.9464904278        3.7243722251
 H          3.2667037748       -0.1141751657        4.4151859349
 O          2.9152733545       -1.8069014201       -0.0879564457
 H          2.1752350853       -2.2534762261        0.3880009842
 H          3.6672563328       -1.8721243177        0.5159897221
 O          1.3416742119        0.6091379816       -2.2454031599
 H          2.2967227416        0.4571481962       -2.3723991009
 H          0.9600362844        0.7171662006       -3.1181023349
 O         -2.0035561277       -5.4915691591        0.3520854078
 H         -1.0028282872       -5.5580689700        0.3841732576
 H         -2.3253928857       -6.3581029220        0.6026479843
 O          5.5970036998        1.6423796021       -1.7132480863
 H          5.0049693556        1.0131964926       -2.1758577903
 H          6.4398801838        1.6170327321       -2.1663560210
 O         -2.3865961668        0.4824623351        0.1106963410
 H         -1.5701216113       -0.0257778048       -0.0081199541
 H         -2.0710012390        1.3344462912        0.4515578467
 O         -4.8253407490        1.5456300499        0.5326495169
 H         -3.9937488278        1.1106825738        0.2532267528
 H         -4.9203572073        1.2992233399        1.4621381721
 O         -6.5251914567       -0.3825535007       -0.4231357039
 H         -6.0635059357        0.4432887269       -0.1904181804
 H         -5.8220483823       -1.0362962468       -0.4485071113
