  309
       -524.48484191
 O         -1.3731051757        2.0377335184        1.7523188872
 H         -0.8055704706        2.6674043109        2.2279023919
 H         -0.8119247410        1.3766847844        1.2707220868
 O          2.5238467003        0.5360842648       -4.6666163259
 H          2.1149866871       -0.0849384464       -5.3009875123
 H          1.8470572339        0.5927132758       -3.9465436033
 O          5.7485107342        3.0499110407        2.4486424970
 H          5.2802093459        3.0448192774        1.5870449890
 H          6.4858463011        2.4333973749        2.3492283044
 O         -5.3458709089        5.0035415590        1.4004273423
 H         -5.1708601199        5.4817363861        0.5822028859
 H         -4.5687854594        5.1352253493        1.9741319734
 O         -4.0077760431        0.3976630318        6.1055467527
 H         -3.8809907387       -0.4568053196        5.6686502860
 H         -4.7676576740        0.7967253567        5.6609814726
 O          6.5009834807       -1.7450621822       -3.5430676582
 H          6.8549398189       -1.4951677123       -2.6677824651
 H          6.9107904997       -1.0963232811       -4.1513642442
 O         -2.5172928111       -0.8001923196        1.5019529623
 H         -3.3790923545       -1.1348433973        1.7867660317
 H         -2.1198545897       -1.5463430177        1.0064496653
 O          2.0218414819       -2.2913171902       -2.8950022136
 H          2.9230831396       -1.9198285865       -2.8804822824
 H          1.9189142432       -2.7813104247       -3.7375133609
 O          1.6295929935        2.6636813504        0.7316390554
 H          1.3704273704        2.3683564754        1.6344866434
 H          0.8267585843        2.6569795670        0.1578153223
 O          3.1130245013       -3.8814613116       -0.7506940979
 H          3.5331703211       -4.6074779140       -0.2292061636
 H          3.7570995074       -3.1526635822       -0.7238418850
 O          0.8853262499       -4.0219613240        0.6097111804
 H          1.6118971250       -3.7898979940       -0.0075744563
 H          1.0285032797       -4.9872190863        0.7507772418
 O          1.6856349793       -6.5542605473        0.7861979975
 H          2.6351637312       -6.4673141094        0.9398271059
 H          1.6097570452       -6.8472487268       -0.1527306492
 O         -3.2178232901       -1.5421005801        4.3019386937
 H         -2.4672737228       -2.1370192950        4.4306290084
 H         -3.7677284446       -1.9246274737        3.6015237389
 O         -3.2718180313        1.3079189723        0.0248799214
 H         -3.0207010070        0.4746222411        0.4750887433
 H         -2.6276138761        1.9513631823        0.3566777226
 O         -5.8598153189       -3.1211911285       -2.6205707233
 H         -5.4453433236       -2.5977687062       -1.8916623249
 H         -5.6892626553       -4.0392657243       -2.4059344082
 O          2.9984953872       -5.1607884940       -3.1084889348
 H          3.9563401476       -5.1432476880       -3.2774120737
 H          2.9155136006       -4.5980702362       -2.3073881772
 O          1.5938590595       -3.8758363649       -5.0000401296
 H          2.1757645214       -4.4872412496       -4.4992447485
 H          0.7001075756       -4.2323074916       -4.8887439132
 O         -0.4601854847        2.9185536552       -0.8832954462
 H         -1.1607272211        3.3785708918       -0.3859905505
 H         -0.0943965164        3.5704941603       -1.5121086113
 O         -0.6263603823        6.1040643099        1.3465815495
 H         -1.2154131339        5.5840786543        0.7714380412
 H          0.2443845579        6.0904791620        0.9240040912
 O         -1.7281430040        1.2198881127       -2.5459810379
 H         -1.3387006024        1.7209680957       -1.8045764778
 H         -2.4869519233        1.7330378396       -2.8695151804
 O          4.9885360207       -1.9279367022       -0.5153012352
 H          5.0319400141       -1.3766610573        0.2852453634
 H          4.7491171688       -1.3599166309       -1.2565286075
 O          4.1640091270       -4.4794013026        3.1617078292
 H          3.2846244857       -4.0683196255        3.1435302666
 H          4.7842481088       -3.7712301201        2.9015347691
 O         -3.5176017415        3.3273425350        4.9059898314
 H         -3.4074328390        2.4871514904        4.3909737309
 H         -4.3871464283        3.2780244764        5.3061802386
 O          3.8672588423        1.8652890438        3.8207943925
 H          4.6527446569        2.2294957443        3.3365061037
 H          4.0996559534        1.8268656268        4.7483908545
 O          5.5648641905       -0.6064260201        4.4363514212
 H          4.6151884752       -0.5829095264        4.1838556847
 H          5.6162691493       -1.0980133185        5.2555395237
 O         -4.7931644463       -2.1473674444        2.0765811239
 H         -4.9502549129       -3.0947801518        2.1387618037
 H         -5.5595295018       -1.6885920374        2.5184846377
 O         -8.2477723698        2.3994728468        0.8331512240
 H         -8.5710681249        2.5352066444       -0.0655232668
 H         -7.2803320299        2.3151918932        0.7280707927
 O         -8.3310703353       -2.3440445846       -1.9389423441
 H         -8.4569790793       -2.7745476358       -1.0838591796
 H         -7.5277901000       -2.7512357948       -2.3225290547
 O          1.1606731529        1.6899015911        3.1370322909
 H          2.0354638056        1.4731489436        3.4808482925
 H          0.5651712473        0.9434455359        3.3230784036
 O          4.2526314681        2.9670777520        0.2198804136
 H          4.2918879489        3.8485126376       -0.2104787463
 H          3.3082540403        2.8065569237        0.3934581658
 O          5.6388320740       -4.4461880985       -3.0671018166
 H          5.9866509202       -4.5381747298       -2.1688339827
 H          5.9409032919       -3.5832320667       -3.3789490008
 O         -1.1653135947       -1.0334292557       -4.2386516917
 H         -1.7503305403       -0.3515280915       -4.6167356818
 H         -1.7405835449       -1.7959012875       -4.0388155993
 O         -5.5615741165        2.4716849256        0.4873291831
 H         -4.7115605405        1.9703400077        0.4411830081
 H         -5.3912675936        3.3269214506        0.9261183388
 O         -0.3318567280       -3.1332948759       -1.9814387723
 H         -0.5657995006       -3.5069281224       -2.8473584880
 H          0.5875425799       -2.8441674112       -2.0795109195
 O         -1.0957350692       -5.6628829871       -1.3469993837
 H         -0.6151933303       -4.8120705582       -1.3226739238
 H         -2.0287724162       -5.3859572901       -1.3872078647
 O         -4.7875833518       -1.5987322880       -0.7073460294
 H         -3.8476593905       -1.4516302737       -0.9475317890
 H         -4.8124233455       -1.8609368787        0.2237059463
 O          5.7783476591        2.4429304253       -4.0457110623
 H          4.9614752156        2.6651532477       -4.5224058313
 H          5.5201084669        2.1002405306       -3.1633922550
 O         -6.7416123804       -0.9813846976        3.3274966339
 H         -7.3256945409       -0.7098593619        2.5829573395
 H         -6.4770251606       -0.1436422105        3.7622620502
 O          4.7151831213        0.0504397848        1.4419648909
 H          4.1145035681        0.3983747709        0.7546311849
 H          4.1618612553       -0.1265596945        2.2160466126
 O          4.3125196744        5.3665291911       -0.9377984797
 H          5.2804012091        5.3335931799       -0.9913592471
 H          3.9669358445        5.2313607375       -1.8446420696
 O          3.4109214727        2.9491711925       -5.3482871767
 H          3.0008820852        2.0899656811       -5.0880900974
 H          3.2670495111        3.0355993575       -6.2896867296
 O          3.0404495673        4.6431507880       -3.1827884191
 H          3.2364508787        4.3624056778       -4.0858287276
 H          2.8290660114        3.7960406862       -2.7288310151
 O          1.2982328898       -2.5403289898        6.1228876754
 H          1.4345572336       -1.5781101302        6.1186787537
 H          2.0910062020       -2.9403352908        5.7603366480
 O          7.9508337146        2.3944548143        0.1682341082
 H          7.7671710468        1.6851779152        0.7954349252
 H          8.3546634573        1.9917375286       -0.6141149043
 O         -2.2189366346       -1.1889466335       -1.3674856642
 H         -1.5861690416       -1.8743144471       -1.6422046573
 H         -2.0901549525       -0.4144752085       -1.9448631180
 O          1.3799593848       -7.0166372922       -1.8202432307
 H          0.4920335630       -6.6447364972       -1.8792290240
 H          1.9703555028       -6.4514024429       -2.3504134630
 O          6.4896846475       -4.1910208257       -0.3528261473
 H          7.3285140086       -3.9540566263        0.0467868425
 H          5.9737462536       -3.3622764772       -0.3704431872
 O         -2.9027192804        0.7465848273       -5.3698649992
 H         -3.1192657536        1.5506466243       -4.8752594269
 H         -3.6539834905        0.1497780549       -5.2561376181
 O          5.2612110228        1.3527840022       -1.6403811845
 H          4.8650989631        1.9131098510       -0.9410591228
 H          4.5920706001        0.7045723117       -1.9243803810
 O         -4.8142335682       -4.9390455924        2.7506053446
 H         -3.8378756025       -4.8187893163        2.8058279003
 H         -4.9769270508       -5.8523485273        2.9886429675
 O         -4.7748149122       -1.1105349303       -4.2555846219
 H         -5.4937030217       -1.7018248393       -4.0051426559
 H         -4.6794688017       -0.4885251651       -3.5034316725
 O          4.1614044320       -0.7110354764       -2.9607780994
 H          4.9834937590       -1.1127068173       -3.3312178251
 H          3.7101616523       -0.2274446644       -3.6858225267
 O          1.7651087234       -3.1302307073        2.9472438012
 H          1.4882574060       -3.4228268604        2.0477742359
 H          0.9551258832       -3.1806611586        3.4805870108
 O         -8.1373603610       -0.2871133232        1.1908316908
 H         -8.4793846827        0.6136527774        1.3093514561
 H         -7.6457369482       -0.2289688399        0.3371432052
 O          7.9087964683       -1.7358535534        0.8912321159
 H          7.6743906395       -1.3813543051        0.0139881000
 H          7.9717165242       -0.9493186835        1.4521464469
 O          7.1462718651        0.6050476165        2.2544616549
 H          6.2596024277        0.3950195824        1.8719634069
 H          7.0522627252        0.3682467908        3.1824984246
 O         -5.6539775905       -4.4007031587        0.0864309636
 H         -6.4738877937       -3.8870496656        0.2141949760
 H         -5.4406005229       -4.7815451391        0.9470142986
 O          0.9436436014       -1.2623004735       -5.8911986381
 H          1.2749103547       -2.1686494113       -5.8770686298
 H          0.1765038866       -1.2578365022       -5.2759162088
 O         -7.1307307094        3.5708030997        3.1296292560
 H         -6.5903561317        4.2045878664        2.6407824013
 H         -7.7757424398        3.2376441942        2.4903176582
 O          9.0673050898        1.6022417418       -2.3398441199
 H          8.6525322626        2.4546469426       -2.6781131455
 H         10.0128528221        1.7088987331       -2.4385057597
 O         -1.6772872410       -3.1374823962        0.5992507105
 H         -1.9450546552       -3.6487043316        1.3892774864
 H         -0.7517004591       -3.3915645150        0.4256227337
 O         -2.1768369542       -4.5986138291        2.7731093880
 H         -1.7067609752       -5.3601820859        2.3519828977
 H         -1.5734973947       -4.1770730311        3.4056480618
 O         -0.9307963544       -4.7218106778       -4.1679365721
 H         -1.7674368678       -4.2348804851       -4.2721321079
 H         -1.1078884151       -5.4654058427       -3.5828185275
 O         -2.0777803410        5.3117166065       -3.0754900547
 H         -1.9592509385        5.8157777475       -3.8808118540
 H         -1.1782700535        5.2029581644       -2.7021031231
 O          1.8397438027        2.8500905592        5.9788069172
 H          2.1145073320        3.3789328714        5.2199067132
 H          0.9082209826        3.0765077449        6.1053273551
 O          0.7971944653        0.0713847563       -2.7305006474
 H          1.2016741383       -0.8167880478       -2.7336975034
 H         -0.0789506743       -0.0595682700       -3.1254315787
 O         -3.0919165941        4.9603260545        2.8449734026
 H         -3.2189384983        4.3992301591        3.6411556177
 H         -2.3704639008        5.5678047072        3.0200041192
 O          1.4316459319        0.1838053383        5.6715007237
 H          1.7278641304        1.0999312398        5.8525939264
 H          0.4642804349        0.2441257329        5.7240093196
 O         -1.0217593361       -6.4649716836        1.3163167279
 H         -0.0959490914       -6.7208927094        1.4216723939
 H         -1.1100152285       -6.2574522714        0.3661269594
 O         -0.6527621809       -2.8724867732        4.2891042718
 H         -0.1493578800       -2.8546578328        5.1238234449
 H         -0.5791853688       -1.9520396837        3.9240548571
 O         -0.8612129563        3.4343678016        5.5118008565
 H         -1.8100657117        3.6184198687        5.5499421114
 H         -0.5874077600        3.6620200640        4.5960849599
 O         -0.1054967954        4.1066289143        3.0311217980
 H          0.8602041591        4.0825468656        3.1441091769
 H         -0.2991645731        4.9061497320        2.4971576465
 O         -4.5947633081        0.6761575106       -2.2875268713
 H         -4.0117327962        0.7844101009       -1.5180040790
 H         -5.1163814133        1.4839931428       -2.3481452990
 O          1.7739938860        5.3462189104        0.2101198074
 H          2.6737217626        5.5414173610       -0.0845981386
 H          1.7676483163        4.4012661654        0.4708222640
 O         -0.6212332571       -0.3922335342        3.4201936245
 H         -1.0248113785        0.0365251447        4.2080399545
 H         -1.2882496211       -0.4201721362        2.7055801785
 O          2.1615810293        2.4183564168       -2.1530355832
 H          1.4225848127        2.4508447704       -2.7963133760
 H          2.2902129343        1.4870527756       -1.9468934693
 O         -1.3090608567        0.7963109248        5.6574709779
 H         -2.2261323214        0.6992795011        5.9691761726
 H         -1.1228737424        1.7601481584        5.6344826060
 O          7.3292906293       -0.3308473044       -1.3698560219
 H          6.5748570161        0.2988281115       -1.3691505151
 H          8.0681788589        0.1693030669       -1.7379328562
 O          2.6024483758        4.2236800318        3.4448365871
 H          3.1964474964        4.8284986499        3.0006188854
 H          3.0391420739        3.3469149021        3.4445127412
 O         -8.2143366276        2.1400860005       -2.0148938464
 H         -8.9010433172        1.8926425659       -2.6330842924
 H         -7.7772904300        1.2976533897       -1.7412408523
 O         -3.4436055705        2.9963284568       -3.6796722992
 H         -2.9001693911        3.7888581149       -3.5253443022
 H         -4.2798710533        3.1351259557       -3.2145668656
 O         -7.9373246038       -3.0680581892        0.7959384236
 H         -8.1247408609       -2.1272903134        0.9281236029
 H         -7.9253572380       -3.4419936470        1.6979479270
 O         -3.3267393055        1.2347798883        3.3022564735
 H         -3.1509944341        0.3478857395        3.6454330837
 H         -2.5900361050        1.4797550385        2.6878477775
 O         -3.3165418557       -4.1407058096       -1.2752442541
 H         -4.1650807242       -4.2484969308       -0.8136174100
 H         -2.7434363593       -3.6342472103       -0.6601113188
 O         -5.8671668863        1.4171703985        4.1702467719
 H         -5.0642497757        1.4079134218        3.6206959725
 H         -6.3933666797        2.1838656618        3.8650349115
 O         -7.3753822214       -3.6882714051        3.3828037133
 H         -7.2470005314       -2.7605904676        3.6356204639
 H         -6.5091625683       -4.1095347690        3.4099401037
 O          4.3594766928       -5.6447863151        0.7824747807
 H          5.2342333214       -5.4024107489        0.4435158822
 H          4.3245715898       -5.3008824941        1.7082398182
 O          5.7159619835       -2.4606147901        2.3228247449
 H          6.5263551196       -2.3715693382        1.7897812473
 H          5.7832685657       -1.8080044723        3.0330682456
 O          7.5791999217        0.4654542570       -4.6173403808
 H          8.2430373290        0.7421490596       -3.9748511611
 H          6.8929215042        1.1571920859       -4.5821615002
 O          6.9785836857        4.7122762445       -0.7316712580
 H          7.5304624374        5.3319170586       -0.2541114463
 H          7.1707447071        3.8318694892       -0.3385129347
 O         -2.4075117290        4.2604997577        0.3138873584
 H         -2.6758410189        4.2675205133        1.2480902136
 H         -3.1203400493        4.6735233738       -0.2119154033
 O         -5.7281788782        3.2400596682       -2.0179065422
 H         -5.6702746613        2.9434864336       -1.0679457058
 H         -6.6639851984        3.1103439029       -2.2361124149
 O         -4.2450432218        5.4159093176       -1.2629284133
 H         -4.8439982033        4.7382763655       -1.6277150389
 H         -3.5719475157        5.5779913076       -1.9406539232
 O          0.4691220460        5.1196473894       -2.1501715688
 H          1.2037337344        4.9749588484       -2.7678330997
 H          0.8983211522        5.3513461762       -1.3009484581
 O          7.9277658734        3.7836046615       -3.1593673249
 H          7.1468547385        3.4192046375       -3.6219470225
 H          7.5772794088        4.2225197260       -2.3655401414
 O          2.9859720934       -0.7910320054        3.5999643051
 H          2.6034103335       -1.6428791514        3.3119794903
 H          2.3999474838       -0.4521279433        4.2999883817
 O          0.1754860160        2.6445540801       -3.9697815203
 H          0.1999079641        2.3172395763       -4.8842929441
 H         -0.5019449492        2.0998217240       -3.5332474660
 O         -2.9336875663       -3.0179388895       -3.7354109531
 H         -3.1433123151       -3.3404417867       -2.8368477970
 H         -3.6547344719       -2.4061014573       -3.9857198264
 O         -7.0786433136       -0.1321364259       -1.2261909270
 H         -7.5819243895       -0.9093485705       -1.5727749467
 H         -6.1350883605       -0.3798988858       -1.2409448041
 O         -0.2182994730        1.3436800033       -6.3506409848
 H          0.2036390915        0.4799170941       -6.4316713657
 H         -1.1605212179        1.1718283462       -6.2296009421
 O         -0.1187252673        0.1872267092       -0.0318631797
 H         -0.8943623256       -0.3714220997       -0.1717627150
 H          0.2283738073        0.3457008748       -0.9250784390
 O          2.7152976174        0.3215887965       -0.3288894954
 H          2.1554302710       -0.4364147780       -0.1457646291
 H          2.2321127335        1.0968369875        0.0109027970
 O        -10.4651800618       -0.1775833152       -0.5032219463
 H        -10.1727727843       -0.9476609114       -0.9959905061
 H         -9.9975454656       -0.2032745558        0.3381378077
