  525
       -891.34640243
 O          1.4190405008       -0.9648276170       -5.8919233755
 H          1.3028818851       -1.4880457192       -6.7140961189
 H          0.5089980324       -0.6856591122       -5.6795074337
 O          0.4635670091        1.8268535555        0.7929844365
 H         -0.1048876254        1.9550994953        1.5735860556
 H          0.1515114751        1.0016850886        0.3830747167
 O          3.5681299094       -7.0543174756        2.4070763739
 H          4.3383252188       -6.7733605656        2.9497766150
 H          3.5393637012       -6.4260175336        1.6737154034
 O         -4.2236300320        2.6601914474       -1.1908648653
 H         -4.4099318594        2.3086284685       -2.0801863068
 H         -5.0724290969        2.6581833763       -0.7273747581
 O         -0.8739789804        0.3206548043       -6.3333725670
 H         -0.4207215831        0.6813437841       -7.1143041840
 H         -1.5029103376        0.9894078094       -6.0350993418
 O         -0.6153077101       -3.0016719181        0.3021393892
 H         -0.0005632387       -3.4936158744        0.8578272149
 H         -1.0602713504       -3.6309956945       -0.2871704852
 O         -1.3820508173       -1.2727420862        2.2312428771
 H         -1.5976600377       -2.1071616118        2.6835387499
 H         -0.4231750855       -1.3216028041        2.0515237513
 O          3.4391022297       -4.7354451165        5.6626900861
 H          3.0738575318       -4.5207764295        6.5400772869
 H          2.7054685684       -5.0684989049        5.1340165295
 O         -1.7341193965       -4.8689130772       -1.4538781608
 H         -1.3282381076       -5.0377040226       -2.3176347407
 H         -1.9096958716       -5.7216519367       -1.0537691524
 O          2.3472796976        1.1987355380       -2.8938604359
 H          1.8466341307        1.8645553276       -2.3869583537
 H          2.1922114595        1.3896686980       -3.8296312325
 O         -7.7905509597       -2.2238653757       -2.3059688109
 H         -7.5607612508       -2.4591895373       -1.3865153258
 H         -7.4789310183       -2.9706148663       -2.8351807588
 O         -3.6729414228        0.3499683423       -7.4428681460
 H         -3.3803871484       -0.4168406456       -7.9493098275
 H         -3.1233147432        1.0913486623       -7.7610620552
 O         -4.7772705944       -2.8858542106       -1.6636277280
 H         -5.2385475314       -3.3305314322       -2.4072919908
 H         -4.1335282201       -3.5020156542       -1.2922685187
 O         -1.2759171574        1.3244789702        5.5776268577
 H         -0.6588090924        1.9187514971        6.0369176818
 H         -2.1725730759        1.5721242194        5.8778950769
 O          1.1326485053       -4.1887055649        2.0734805626
 H          1.0970290821       -3.3795250676        2.5924785031
 H          1.2615341638       -4.9174305400        2.7083191267
 O          0.6890615435       -5.5254842639       -0.4099247312
 H          1.6078165319       -5.4884278850       -0.0934480131
 H          0.6051493842       -4.8579416639       -1.1204622986
 O          1.9655278115        1.6443468629       -5.5948291460
 H          1.8766826878        0.6925932594       -5.7878497268
 H          1.0588787387        1.9537962106       -5.4092219907
 O         -0.4697597050        1.0687526246        3.1277487911
 H         -0.8925162302        1.3571465357        3.9570667643
 H         -0.9943621675        0.3140482328        2.8129985687
 O          3.9012385525        3.7993713916        2.8452764852
 H          3.3944870442        3.4178692754        3.5928080311
 H          4.5068540514        4.5039225859        3.1460191201
 O         -1.7210681115       -3.7442582033        3.2449419213
 H         -0.9379739182       -3.6394466299        3.8272615457
 H         -2.4620677536       -3.8860657915        3.8533604459
 O          3.3556955904       -5.3203104363        0.1183253712
 H          3.4953483159       -6.2147757190       -0.2628402958
 H          3.4906611150       -4.7414679391       -0.6668729073
 O          3.2830644485       -7.6312244897       -1.1761823615
 H          2.6835286467       -8.1290668999       -0.6050785490
 H          2.7529271759       -7.2993778433       -1.9285011357
 O          4.3754992639       -1.1697416501        1.6924533139
 H          3.8019106096       -0.7427490933        1.0333043681
 H          4.2226609212       -0.7017996915        2.5417500047
 O          3.7293615235        2.5016613844       -0.7218614416
 H          3.7247858562        2.9081140095       -1.6020169307
 H          3.1878411316        3.0748516809       -0.1532987775
 O         -1.4417065854       -5.6296618195        1.3855081450
 H         -1.4786818444       -4.9017997151        2.0429874703
 H         -0.6729058437       -5.4667177936        0.8099788538
 O          0.5669770157       -3.4003162716       -2.1400185752
 H         -0.3106484818       -2.9696306708       -2.1243787149
 H          1.1105740178       -2.9486573922       -1.4691444296
 O         -0.1870769357       -0.4351203087       -0.4631809856
 H         -0.0813207243       -0.5022718719       -1.4356690963
 H         -0.3362220738       -1.3477711184       -0.1448067622
 O         -5.0760127357       -2.7330980318       -5.5882371452
 H         -4.6980666680       -3.2744620953       -6.2839487588
 H         -4.3363193278       -2.1587784220       -5.2869137603
 O         -3.6661944406       -4.1439095915        5.0995228447
 H         -3.3794149194       -3.6257848054        5.8807077466
 H         -4.6388594013       -4.1825984138        5.1446551517
 O          3.9709676328       -1.1841180584       -4.6893134433
 H          3.2684452982       -0.8915276320       -5.2790182277
 H          3.5269652732       -1.3667563006       -3.8195009401
 O          7.2784388913        2.0031399534       -2.4168698038
 H          6.4084520815        1.6322138834       -2.6713965660
 H          7.8293107167        1.2369377210       -2.2044927034
 O         -3.1823034951       -0.9190204579       -5.1307182643
 H         -3.4144304547       -0.3447138246       -5.8881319580
 H         -3.0117304470       -0.3502531848       -4.3592656770
 O         -2.9637725415       -7.5230971134        0.0439760006
 H         -3.4480997822       -8.0146533516       -0.6200808777
 H         -2.0161279834       -7.7027696658       -0.1222297484
 O          5.1062008277        5.0964406089       -1.3945495463
 H          5.5360380312        4.3879616739       -0.8531424559
 H          5.5188709859        4.9860038385       -2.2677024034
 O         -2.7289256388        0.6571112608        0.1678680510
 H         -1.8575709012        0.3163543942       -0.0900232442
 H         -2.9166715744        1.4487001867       -0.3584367095
 O         -4.4355421578        3.6041237993        1.8744119155
 H         -4.9548962118        3.9344591260        2.6382342109
 H         -5.0542143717        3.4705450319        1.1514342508
 O          0.2824775652       -0.6450303488       -3.0663611454
 H         -0.1928289130       -1.2334850563       -3.6913495595
 H          0.1681297952        0.2698473471       -3.3840719376
 O          7.9734947033       -0.5270853114       -1.5188963572
 H          8.4247987712       -1.1739972799       -0.9366143892
 H          7.2034454744       -0.2371228521       -0.9865273212
 O          5.6556298965       -4.4345198967       -3.5708734745
 H          6.1025978464       -3.6050488260       -3.3008044450
 H          5.4051218865       -4.2682917189       -4.4943623035
 O          1.3120997804       -1.2866758138        2.0892891104
 H          1.6242354540       -1.6421358418        1.2341951580
 H          1.7093792242       -0.3908504931        2.1883304928
 O          1.3490040555        5.5279202726        6.5907562392
 H          2.1586347097        5.7858323890        6.1371905800
 H          0.6135079999        5.8136169429        6.0189059275
 O          0.2317803913       -0.5965207809        7.1565721468
 H          0.2436981586       -1.5318134468        7.3863902477
 H         -0.5802923054       -0.2301186335        7.5610276841
 O          3.3506092137       -4.1587359217       -2.2589930730
 H          4.1995888540       -4.2720528281       -2.7331175678
 H          3.0873427274       -3.2223854190       -2.3585607133
 O          2.4906348135       -3.7099682366        8.0278513713
 H          2.5934849208       -2.8269239963        7.5576135077
 H          3.0756862898       -3.6838683426        8.7832747446
 O          3.0405301307       -5.3612813908       -5.5965632069
 H          3.8820246374       -5.1057331407       -5.9776163508
 H          2.7034534895       -4.5511298799       -5.1639983009
 O         -0.4414564481        5.8216001000       -2.0998277439
 H          0.0110053723        6.6675200319       -1.9194720935
 H         -0.5001890041        5.4268245441       -1.2033195644
 O         -2.4821191742        0.3116593637       -2.8584831419
 H         -2.0460586019        1.0859759672       -2.4501410745
 H         -3.3684552330        0.2533727863       -2.4475120782
 O          4.1218934128       -0.2041213486        4.1508414057
 H          3.1631153982       -0.1295108239        4.3224269682
 H          4.4375999574       -1.0488204201        4.5251661801
 O          2.1465389357        4.0392047413        0.9313238231
 H          2.8783689310        4.1921833845        1.5586266210
 H          1.4848186361        3.5911716514        1.4851865794
 O         -1.6969581168        7.1385698851       -4.2708753034
 H         -0.9851830231        6.8362605263       -3.6970980667
 H         -2.4321013961        7.3497141813       -3.6614349320
 O          2.5074975801        1.0367953954        2.2958076403
 H          1.8549175584        1.5030300292        1.7458940257
 H          3.3915505155        1.2696762748        1.9867016937
 O         -4.1070210460        5.6134698308        5.3121806455
 H         -3.6452281477        5.8623768599        4.4919583918
 H         -3.4744937842        5.0856575548        5.8192828271
 O          1.0025068643        3.0616204907       -1.4679251254
 H          0.9323814488        2.7355014582       -0.5509322423
 H          1.4736433783        3.9146021115       -1.4384334261
 O          5.6332242173        0.1762263558       -0.4509895783
 H          5.3356001005        0.7725234855        0.2518026554
 H          5.2647482549        0.5042393653       -1.2963510943
 O         -0.4012067752       -7.6531364484        2.6769210319
 H         -0.8565172724       -6.9223398316        2.1762785513
 H         -1.1086240913       -8.1461279799        3.0948771119
 O          3.5103365901       -1.9962017659       -8.0012752400
 H          2.5965179943       -2.2806158511       -8.1345086154
 H          3.9220284285       -2.6230559425       -7.3859068193
 O          0.1838615064       -3.2452465536        4.9614710691
 H          1.1167341678       -3.0145458945        4.7727270544
 H          0.1757184398       -4.0525748183        5.5119719731
 O          4.9826943557       -3.2236206501       -5.9537599819
 H          4.5919941246       -2.4755555732       -5.4143979966
 H          5.8355784837       -2.8883226730       -6.2356540148
 O         -2.0163649958        3.5875279575        3.8495196568
 H         -2.5018026396        4.2768482302        3.3664671939
 H         -2.3614656501        2.7408052126        3.5215580795
 O         -4.2799998728       -5.8875462444       -2.3774915533
 H         -4.0798099953       -5.5925860995       -1.4704139336
 H         -3.6388687743       -6.5933466202       -2.5822841532
 O         -0.2631933892       -3.5049858351        7.9101256615
 H          0.6677035322       -3.5204796217        8.1823673152
 H         -0.3642900457       -4.3453983020        7.4439240749
 O          2.2137128357       -2.6768576133       -0.0084408394
 H          3.1452816540       -2.5528657783       -0.2567978251
 H          2.1454594508       -3.4495628609        0.5672425290
 O          1.6735545652       -3.3018928033       -4.5433842653
 H          1.2641127487       -3.3331498614       -3.6472801215
 H          1.5830129801       -2.3884454785       -4.8692666077
 O         -5.9908980417        4.3415564648        3.9317144426
 H         -5.3937420928        4.8898010267        4.4911354160
 H         -6.1313907431        3.5316354038        4.4419307279
 O         -5.6934891884       -2.6909012057        7.1461413809
 H         -5.8639718800       -1.8981067166        6.5920917538
 H         -4.7498265431       -2.6693062927        7.3491994811
 O         -2.8148578845       -2.5813742789        7.1434523693
 H         -2.4039098365       -2.0181634156        6.4345728121
 H         -2.0598058050       -2.9613288772        7.6135495285
 O         -1.6374037582       -1.2885987175        5.2083318849
 H         -1.3659789408       -0.3733193164        5.4291566553
 H         -0.8389523576       -1.8424776348        5.1394985642
 O         -2.2986858667       -6.4942761247        5.1451342941
 H         -2.8484798482       -5.6943667917        5.2095025468
 H         -2.5478998200       -6.9058970911        4.3028343394
 O         -2.4227110303        4.3290275653       -3.4265473249
 H         -3.3269137708        4.7041152315       -3.4539012914
 H         -1.8459709646        5.0029071528       -3.0413008284
 O         -1.5858820014        2.5221128913       -1.6228444399
 H         -0.6217609182        2.6687728073       -1.6910573333
 H         -2.0042827570        3.1730640748       -2.2144963612
 O          3.4654002756        3.7353214552       -3.2878047025
 H          3.8430968662        3.1441969508       -3.9617041571
 H          2.5113719104        3.8315720389       -3.4822549726
 O         -0.8791144325       -2.2317749405       -4.8405111598
 H         -1.1747702725       -3.0375647772       -4.4071663264
 H         -1.7015293879       -1.7423116221       -5.0458631691
 O          2.6399708275        2.4671385533       -7.9830262709
 H          2.3990015902        2.2315742423       -7.0483355957
 H          2.9432625273        3.3795365154       -7.9338754593
 O         -2.2070270298        4.2987047427        6.9980394098
 H         -1.3594382231        3.8208065736        6.9444534007
 H         -2.0180317064        5.1040111137        7.4800200938
 O          5.6516307311        5.7852583773        3.0731592688
 H          6.4446525440        5.2310011543        2.8804417941
 H          5.4506680169        6.2350144274        2.2378197500
 O          0.8730387590        4.2384360103       -3.8679446304
 H          0.4591450311        4.7790759930       -3.1691224089
 H          0.8452582605        4.7652355572       -4.6850835469
 O         -3.2628448410        5.2153685673       -0.7923308383
 H         -3.5972294853        4.3262119335       -1.0207340627
 H         -3.8843274618        5.5527684224       -0.1288466216
 O         -2.9755286664       -3.9012513879       -3.8597088865
 H         -2.6895401684       -3.2748631400       -3.1609932831
 H         -3.3900068404       -4.6439819830       -3.3959924843
 O          6.9226229868       -3.5366320916        3.0869334880
 H          7.2502312136       -4.3537057538        3.4662764225
 H          6.6889767612       -3.7527839673        2.1573040106
 O         -2.2094846055        0.0461252279        8.1721921223
 H         -2.6801352174       -0.7892869931        8.0696535838
 H         -2.7532597347        0.7227233936        7.7429261781
 O          2.3203949938        2.6318355490        4.6828284701
 H          2.7027589261        2.8056038396        5.5542221711
 H          2.0985613494        1.6796762962        4.6468818675
 O          0.5283570508        3.7752265143        3.0457197679
 H          1.0632444255        3.2805848731        3.6919772458
 H         -0.4105163698        3.6577339156        3.3044545577
 O          4.1161317272       -3.7579942036        2.2951089403
 H          4.3332300175       -2.8522850335        1.9845880314
 H          3.9242301782       -4.2845139198        1.5056402972
 O          5.2072497973       -2.5698353782        5.0295495560
 H          5.7963568836       -2.9150358367        4.3374372166
 H          4.5919683019       -3.2861273248        5.2530749845
 O          2.0271499822       -6.2518100120       -3.1686137486
 H          2.4291782224       -6.2971158271       -4.0472677714
 H          2.3878481614       -5.4148785307       -2.7867906745
 O         -4.9887570656        6.4121182117        0.9683700986
 H         -5.8146110851        5.8963069582        1.1514910585
 H         -5.2421129202        7.3253575998        0.8461198889
 O         -0.2478785782        5.3559897151        0.5068523876
 H         -0.8558369450        4.6079254463        0.7675765726
 H          0.6553799007        5.0147687507        0.6124764119
 O         -0.5351966275       -5.6989927996       -3.7908227051
 H         -0.4490643128       -5.4110348295       -4.7093800820
 H          0.3674870786       -5.9351946876       -3.4906032698
 O          5.8393679230       -6.1114770249       -1.2807573849
 H          5.8767441272       -5.6811150507       -2.1447356566
 H          5.1989278151       -6.8263748085       -1.3490477154
 O         -3.0977360744       -2.0452917758        0.3333734403
 H         -2.3929764665       -1.7531421335        0.9490611974
 H         -3.3268992553       -2.9580049547        0.5632031577
 O         -0.4210130980       -7.8931952032       -0.8066593251
 H          0.0046175222       -7.0050821896       -0.7458214191
 H          0.1816748497       -8.4767223292       -0.3359066488
 O          6.3701252717       -1.9329022870       -3.0913879287
 H          7.0591279120       -1.4702572680       -2.5588779954
 H          6.3491193957       -1.4683924227       -3.9431615307
 O         -6.1293635322       -4.1328580333       -3.5672399689
 H         -5.7409138697       -3.7000389684       -4.3610506181
 H         -5.6465503951       -4.9567241695       -3.4190505256
 O          0.3041125118       -4.7071860780       -6.2683332924
 H          0.9928338320       -5.3507453236       -6.4597534506
 H          0.7179029269       -4.0933141875       -5.5973061419
 O          4.8660598956       -2.3238417165       -0.8064586568
 H          5.2278589653       -2.3083894196       -1.7067801005
 H          5.0982853869       -1.4359772321       -0.4599154204
 O          2.3921983594        7.0547899840        0.6534806747
 H          3.3574023901        7.1498378708        0.6806616363
 H          2.1403605421        6.6811486767        1.5244327557
 O          8.5791050574       -2.2855859714        0.3692012047
 H          7.9642423626       -3.0361116683        0.3193571220
 H          8.2206044406       -1.7131344355        1.0686764671
 O          6.4308506878       -4.0540564215        0.4768967819
 H          5.8233257240       -3.4180829529        0.0356711205
 H          6.3277160860       -4.8854072918       -0.0108862119
 O         -6.2468233028        4.7014503167       -1.3998125321
 H         -6.8651600640        5.2080323651       -0.8740248503
 H         -6.7524676919        3.9570457790       -1.7906595372
 O         -6.0751117210       -0.8670423565        5.2296215104
 H         -6.6543601783       -1.3069739913        4.5816341439
 H         -5.1948887628       -0.8730337128        4.7806816078
 O          2.0600699278        7.1321519053       -3.5332119739
 H          2.0897339746        6.4290051349       -2.8412713875
 H          2.9422180707        7.0871581943       -3.9269769931
 O         -1.8022420830        7.9420205983       -0.1354115019
 H         -1.8769790508        6.9791688121       -0.1749146470
 H         -0.9582981091        8.1590273715       -0.5555235963
 O          2.6967762583       -1.5332357446       -2.4856998677
 H          1.8176523553       -1.1777811672       -2.7526274030
 H          2.9438957660       -0.9779110947       -1.7195085062
 O         -3.4956590703        7.4181802013       -2.2823361938
 H         -3.4135399238        6.5573101898       -1.8028669312
 H         -3.1097022769        8.0557957978       -1.6695277739
 O          4.7220124467        2.6914337799       -5.4260846725
 H          4.2352427218        3.3228025188       -5.9772716025
 H          4.5488415106        1.8161509277       -5.7974195315
 O          1.6306394049       -8.5302498439        1.0103678740
 H          0.8944909026       -8.2950076648        1.6027354978
 H          2.4238691249       -8.3001169026        1.5117418955
 O         -3.8235016795       -4.7453692356        0.1797349805
 H         -4.6400864914       -4.8924131336        0.6787617125
 H         -3.0969319435       -5.2068663954        0.6312496485
 O         -0.7599362120        5.9304512252        4.9353631045
 H         -0.8980160023        6.4345757070        4.1278888057
 H         -1.1902691550        5.0741960768        4.8052893585
 O         -7.2501368084        0.3071055809       -1.1619344489
 H         -7.6699235718       -0.3986955481       -1.6678348148
 H         -6.2725765259        0.1374528535       -1.2594983124
 O          1.4602859180        0.0610033218        4.6835934310
 H          1.0330519708       -0.1459419850        5.5276264337
 H          0.7717251532        0.3633902015        4.0506379481
 O          6.5221353798        3.2908888462       -0.1346954807
 H          6.8763345190        2.7859918369       -0.8919700268
 H          5.9093788917        2.7003552731        0.3507558685
 O          3.6530696299        5.9636432365        4.9691741398
 H          2.9755928189        6.0022664192        4.2597941544
 H          4.4947591259        6.1180100139        4.5176782088
 O          0.0258514333       -5.6465828400        6.1154131433
 H          0.6840383749       -6.0433543835        5.5295812533
 H         -0.8328075773       -6.0215593517        5.8225020579
 O         -6.0873688539        3.5115434326       -5.0753842371
 H         -5.5907113032        3.5148199365       -5.9087964369
 H         -5.7685201726        4.2991950267       -4.6016523558
 O         -1.8263772844        3.3807104701        0.9656733101
 H         -1.8404669186        3.0456663417        0.0509510138
 H         -2.7370190205        3.5885607256        1.2144414251
 O         -0.1736583226        1.8086200429       -3.9953581748
 H         -1.0688470063        1.8704636586       -4.3537893455
 H          0.1394192214        2.7169019526       -3.8303775392
 O         -5.2261128304       -0.7270768805        1.1519927716
 H         -5.8809871551       -1.3993068226        0.9120955729
 H         -4.3559418417       -1.1372707739        0.9689458911
 O         -5.8612357238       -6.3804304524        3.6165891864
 H         -6.2853722851       -7.1323691285        4.0302758608
 H         -6.0324345320       -5.6167456648        4.2076834435
 O         -6.3040161211       -0.5666926950       -4.0558169897
 H         -6.0143855718       -1.1487684026       -4.7648506491
 H         -6.8118277946       -1.1222899402       -3.4469901364
 O         -6.3881036821       -4.2256945157        5.1153213387
 H         -6.2955006249       -3.7571029493        5.9805279661
 H         -6.8199880444       -3.5977554376        4.5158648685
 O         -2.6459603210        2.2490855471       -5.0794433999
 H         -3.3846230328        1.8524254252       -4.5597925713
 H         -2.4773952183        3.0977811655       -4.6278636381
 O          0.7527251822       -2.5343258325       -7.9484569604
 H          0.6089685110       -3.3797047438       -7.4884510069
 H         -0.1669913492       -2.1999933636       -8.0968672751
 O          5.2974812244       -5.6859969906        3.8640733788
 H          4.8284277668       -5.5529616006        4.6984107183
 H          5.0344140346       -4.9252605465        3.3096323610
 O          4.3371973388        0.4159024758       -7.0706497726
 H          3.9503780876        1.0785098591       -7.6597053400
 H          4.0573015957       -0.4461943868       -7.4338425757
 O         -8.2458751980       -0.4913215762        1.2893222861
 H         -9.0804705125       -0.8769543912        1.0275345529
 H         -7.7963958580       -0.2297814427        0.4576182719
 O          7.5731681211        4.1318660195        2.2750867238
 H          7.3357982630        3.9190746979        1.3563347598
 H          7.5819979170        3.2820820496        2.7389998822
 O         -6.5718350285        2.5540067713        0.3930963237
 H         -7.0719919890        2.0074910583       -0.2226503273
 H         -6.4798466087        2.0099145013        1.2145073659
 O         -7.5375542743        2.6951772463       -2.6238816523
 H         -7.3106189603        2.7514160939       -3.5579752003
 H         -7.4154045115        1.7744168010       -2.3424386301
 O          0.9114960468        6.1053681182       -5.7902283731
 H          1.2311016866        6.6713991015       -5.0571518746
 H          0.0174613370        6.3828723625       -6.0103249093
 O          4.3736181894        5.9818310213       -4.4192766635
 H          5.3299247349        5.9138288318       -4.3687709514
 H          4.0400034088        5.1961127996       -3.9134175043
 O         -4.8782899107        5.4146866105       -3.5427559788
 H         -5.3384550787        5.1699688204       -2.7062028480
 H         -4.6904510562        6.3555953940       -3.4704359028
 O         -7.1608470372        4.9996528135        1.5005514076
 H         -7.0927168234        4.1303441473        1.0629268582
 H         -6.9855945033        4.8356823207        2.4415557768
 O         -2.5268134145       -4.0020929700       -6.5280734734
 H         -1.6488120156       -4.3947045672       -6.5782567003
 H         -2.7403417019       -3.9648146266       -5.5742784176
 O         -3.3359799066       -7.4782649188        2.7951408657
 H         -3.1924110887       -7.4283431961        1.8343607104
 H         -4.1999271778       -7.0868414836        2.9714317659
 O         -5.8016162126        1.8194106246        5.0669859339
 H         -6.0985722658        0.9854605046        5.4648463935
 H         -5.7922106412        1.6061488095        4.1119105806
 O         -6.7067452187       -2.8012103285        0.1288845272
 H         -5.9135621387       -2.8478632225       -0.4576653324
 H         -6.7060949292       -3.6320296931        0.6191000607
 O         -1.9158391420       -2.1763241746       -2.0984478240
 H         -2.0219975741       -1.2649344852       -2.4352322439
 H         -2.3384226055       -2.1775547923       -1.2163490780
 O         -3.0547196249        5.8925743795        2.8269141654
 H         -3.7471883951        6.0394689071        2.1624011166
 H         -2.2958224379        6.4551921625        2.5942571006
 O         -6.3319451363        1.0835281403        2.5519052091
 H         -5.7605246368        0.3921841123        2.1194321022
 H         -7.2043236624        0.6784900563        2.5825921476
 O          4.9187461934        0.8331305225       -2.9570388336
 H          4.9351114540        0.1218529660       -3.6117679603
 H          3.9601398050        1.0559484098       -2.8577686152
 O         -6.3297227463       -5.4015168155        1.1323031369
 H         -6.2163246310       -5.7295381796        2.0434351121
 H         -6.6335423596       -6.1316002278        0.5935684810
 O          0.5098308439        0.8885761579       -8.6479072114
 H          0.8524258602        0.0404174934       -8.9342985312
 H          1.2715497560        1.4886186947       -8.5545899929
 O         -7.1326070199       -2.3303819375        3.1837891521
 H         -7.5512877553       -1.7777051829        2.5087159327
 H         -6.2832127484       -2.6307473899        2.7867848535
 O         -1.8855338650        5.3349349603       -6.2687500694
 H         -2.0045589974        5.9499770641       -5.5212543214
 H         -2.7547076827        4.9594365209       -6.4835113088
 O         -2.2320359444       -7.6149030081       -2.9050972879
 H         -1.7100591374       -6.9739365887       -3.4213070540
 H         -1.6031246553       -7.9436463367       -2.2472898829
 O          2.8100127696       -1.5383363381        6.6967644746
 H          2.7489883992       -1.8098637269        5.7668975376
 H          3.7189078549       -1.2058294175        6.8504096913
 O          0.7462414423        8.1203565923       -1.2786087878
 H          1.3235266761        7.8471938201       -0.5420918244
 H          1.3095719396        8.2073826815       -2.0592115194
 O          5.5313809522        1.5563407857        5.5245663421
 H          4.9000368053        1.0605349086        4.9534576201
 H          5.0723897888        2.3477418443        5.8414583360
 O          0.2818143202        3.0888619611        6.8923782240
 H          0.9518758156        2.4829876916        7.2396394327
 H          0.7416914804        3.9421488820        6.7541383741
 O         -0.7508515141        7.2030667001        2.3141527043
 H         -1.0574898835        7.9251186096        1.7528364116
 H         -0.4798167767        6.4969652698        1.6681603391
 O          7.0599354364       -0.9356266287        2.2717896635
 H          6.1565551746       -0.9377012697        1.9019890012
 H          7.1212546219       -1.7457210207        2.7950645079
 O          5.1316068723        6.9194634533        0.5380833828
 H          5.1496697172        6.2522745469       -0.1898566213
 H          5.8122694258        7.5600541936        0.3360209363
 O         -1.9629237514        2.2577551024       -8.3835863184
 H         -1.3507492639        1.7589880263       -8.9332209352
 H         -1.3985548532        2.6548432980       -7.6857791664
 O          2.2761190929        1.2654470591        7.4489797250
 H          3.1539940247        0.9158466330        7.6056957758
 H          1.6852149322        0.4920757214        7.3990461221
 O          6.5088370522       -0.4015814361       -5.4298039307
 H          6.9375300986        0.4257988186       -5.2068121789
 H          5.7417451771       -0.1725844917       -5.9785766361
 O          1.7144186600        6.1111766119        3.0934682977
 H          1.0215322619        6.7495483866        3.2886160953
 H          1.2594607923        5.2243897816        3.0833016015
 O         -1.7725068029       -1.7397458428       -7.8610183127
 H         -2.1349733035       -2.5142028947       -7.3875716212
 H         -1.5501781484       -1.0770995952       -7.1765141662
 O          6.4311575007        4.2649849710       -3.7254369336
 H          5.9229470293        3.7083905446       -4.3342015984
 H          6.9864889211        3.6414261670       -3.2370620580
 O         -3.8643265544       -1.0003145837        3.7949194163
 H         -3.0345960869       -1.1631962485        4.2792170996
 H         -3.7220850307       -0.1371644066        3.3456807585
 O          2.7895597547        0.0192148996       -0.3049731895
 H          3.1000597177        0.9266408924       -0.5109826622
 H          1.8251410552        0.0311913410       -0.3259726546
 O          2.3852233677        5.4236811691       -1.4848173383
 H          3.3303839318        5.1888541537       -1.5462382890
 H          2.3000594269        5.9200929064       -0.6479524174
 O         -4.6768403152       -3.1798640505        2.4903076391
 H         -4.4088072444       -3.8782176850        3.0879962201
 H         -4.3117357668       -2.3468735466        2.8660512384
 O          3.2490868870        4.8274989970       -6.6042119591
 H          3.7865953322        5.3409381593       -5.9710302248
 H          2.3656110431        5.2067777908       -6.4925776073
 O         -4.0125371223        3.6578403542       -6.9096235847
 H         -3.5330175258        3.0235419774       -6.3312644854
 H         -3.8016626907        3.3826353818       -7.8043540630
 O         -3.2793326529        1.3295022601        2.6955764623
 H         -3.8990198577        2.0439994251        2.4705534177
 H         -2.9588421064        1.0112262745        1.8258376668
 O         -4.7996863678        1.6451785409       -3.6825289108
 H         -5.3302088772        2.2991671203       -4.1860174570
 H         -5.2840819489        0.7998294819       -3.7440880879
 O          5.3125175245       -0.6712349638        7.0669978398
 H          5.6555489299       -1.3569107687        6.4775968161
 H          5.5198140611        0.1790327357        6.6317895859
 O         -0.2295324593        3.2929274905       -6.5694674819
 H          0.4919050139        3.6429003415       -7.0934025026
 H         -0.8021673493        4.0597689789       -6.3447226653
 O         -3.6194043426        1.9477356471        6.6465398681
 H         -4.3907751835        1.9730094553        6.0458019634
 H         -3.3882859925        2.8606862791        6.8641257742
 O         -4.7059266056       -0.2271306361       -1.5108754687
 H         -4.6958958708       -1.1970771766       -1.6201288803
 H         -4.2384816329       -0.0496907447       -0.6725364027
 O          7.1353002677        1.5651113328        3.3252386708
 H          6.7144758838        1.5628963469        4.2050201707
 H          7.3115823301        0.6393203834        3.0780226851
 O          1.5212923748       -6.1888014014        3.8501221640
 H          2.3170297618       -6.5689837850        3.4113421516
 H          0.7843518014       -6.7534472390        3.5380546060
 O          5.1045991582        1.8358075319        1.6415767253
 H          4.6710711758        2.6299673037        2.0331093728
 H          5.8640823180        1.6617226857        2.2407833077
 O          2.5254356606       -2.5271862277        4.0860645778
 H          2.1279294745       -1.8865316386        3.4549528409
 H          3.1168174400       -3.0940216503        3.5580495894
 O          4.0414787134        3.7294579397        6.4588556512
 H          3.7198644042        3.9285033069        7.3378349388
 H          3.9640281341        4.5541410769        5.9346309326
