  249
       -422.56701946
 O         -0.9042172890       -4.3516218095       -3.5208419687
 H         -0.8758218796       -4.4473579708       -2.5336454387
 H         -1.3399604674       -5.1325519487       -3.8605391731
 O         -0.1916534739       -2.5866378275        2.1119284391
 H         -0.3944631639       -2.9049443332        3.0192412798
 H         -1.0605141653       -2.5975601304        1.6296181411
 O          7.9874509639        0.7374195420       -1.0307970942
 H          7.9906187770        1.6771999875       -1.2708535498
 H          7.8007272519        0.2521025912       -1.8728721402
 O          2.7423070643       -1.2307783703       -2.3837099193
 H          2.3880929243       -1.9998597393       -1.8546506552
 H          2.0068059241       -0.9990125336       -2.9686406181
 O          3.1652554146       -0.2921836577       -5.2347487759
 H          4.0289453418        0.1497289337       -5.1613164807
 H          3.3219664962       -1.2321094899       -5.0436063181
 O          5.1112318342        1.5795084530        4.0687242353
 H          6.0690944530        1.6293363501        3.9554067012
 H          4.7583104458        1.7623121181        3.1732563585
 O         -3.7745315439       -2.4367003339        3.4436920562
 H         -4.2993071737       -3.2141078930        3.7203246218
 H         -4.3658526578       -1.7951066617        2.9920295382
 O         -0.4383324512       -0.1297877724        3.0160172293
 H         -0.2116026007       -1.0258820983        2.6804484856
 H         -1.1978052441       -0.2539137392        3.6265987292
 O         -4.4123800644       -4.9426484958        1.1386887401
 H         -4.1453338475       -4.7774936549        0.2216741525
 H         -3.5939314186       -4.9574595897        1.6635187931
 O         -2.2231272985       -5.1527490484        2.9348216864
 H         -1.9069168208       -4.5326989459        3.6049946365
 H         -1.4508157896       -5.3483502684        2.3797899806
 O         -0.6993245419       -1.7415510366       -0.7402175073
 H         -1.2345925001       -1.1089116732       -0.2273855816
 H         -0.4575353904       -1.3020371956       -1.5764886162
 O          2.4138626137       -1.5153284890        3.3253263371
 H          2.0316063260       -2.2056615259        3.8858947720
 H          3.3162225634       -1.3413073185        3.7053029346
 O         -2.5714348418       -2.8046065865        1.0745986308
 H         -3.0110958109       -2.7476242611        1.9480062406
 H         -3.0362659827       -2.1885457204        0.4943583398
 O         -2.2561778695        0.2429429940       -1.9057896259
 H         -1.5492189336        0.7464153813       -1.4711741616
 H         -2.8520302393        0.8865625741       -2.3228585033
 O         -2.1699916855        0.0595636271        0.9224604267
 H         -1.5569872040        0.1670138017        1.6701264271
 H         -2.3432158601        0.9677795112        0.6052055670
 O         -0.6843347404        2.8667337280        4.5285037952
 H         -0.0962784637        2.1573260181        4.8577619987
 H         -0.3868517871        3.6860530790        4.9230476067
 O          3.8060041997       -2.9919512881       -4.7482501378
 H          4.4004432028       -2.9223390678       -3.9792043908
 H          4.3001351541       -3.4183002577       -5.4487358817
 O          2.1318111960        1.7669832254       -3.8398331747
 H          2.5200798332        1.6720698188       -2.9620761563
 H          2.3814313186        0.9783220834       -4.3612765987
 O         -0.6141871180       -3.4278622309        4.6054094921
 H         -0.6620715626       -2.6870907710        5.2357154531
 H          0.2618891419       -3.8197383618        4.7381908507
 O          5.6027452041        0.4167923258        0.0177619445
 H          6.5380796682        0.5664781100       -0.2633371812
 H          5.5002124919       -0.5582658280        0.0974269803
 O         -2.0354544988        3.5350026717       -2.2845484328
 H         -1.3905270747        3.1869100118       -2.9370541939
 H         -1.5986468327        4.3154769803       -1.8959029656
 O          4.4084232945        4.5068331419        0.5309353300
 H          3.7722491559        5.2390699978        0.5140212471
 H          4.5486466808        4.2750753359       -0.4105251457
 O         -0.3679620950        5.2546917430       -1.1034008541
 H          0.3389624411        4.5828531251       -1.0782607931
 H         -0.4565414269        5.5700847986       -0.1966081222
 O         -5.8215574821       -2.6854814776        1.1373567324
 H         -5.3402983486       -3.5364524208        1.2481204540
 H         -5.2373217477       -2.1280931665        0.6034496980
 O         -0.5786173913       -1.2451752019        6.3112644887
 H         -1.3397627672       -0.8658791878        5.8170419092
 H         -0.8799012719       -1.3893702175        7.2079765484
 O          0.1565604321        5.7866620370        1.6697330246
 H         -0.6975941576        5.3424376032        1.8513942209
 H          0.7777102773        5.3965273748        2.3009068125
 O          6.9929414098        3.5227020694        1.0416108572
 H          7.2965895084        3.4795377148        0.1227799002
 H          6.1772004924        4.0387344964        1.0339975511
 O         -3.8508755086       -4.1921483162       -1.5119253853
 H         -4.7300595914       -4.3629818720       -1.8789351852
 H         -3.5296510831       -3.4025111061       -1.9866105160
 O         -6.5020519461        1.3775504485        3.4268656300
 H         -6.8796027351        1.3005259197        4.3026533366
 H         -6.9522015182        0.7152565056        2.8740580151
 O          0.1979770583        2.6408294026        1.9508280031
 H          0.9010603662        3.3000137741        2.1068148480
 H         -0.4076669085        2.7286918940        2.7060814035
 O          0.0925533313       -5.1190853434        1.3545694278
 H          0.1175490045       -4.1620048957        1.5901417812
 H         -0.2534264901       -5.1188463355        0.4438200299
 O          4.8114841691       -1.1033909135        4.2384838712
 H          5.5320987857       -1.3745516598        3.6507788666
 H          4.9041207251       -0.1330766627        4.3313703223
 O         -2.9842525904        1.7610804451        3.3596307693
 H         -3.6519992858        2.4168308076        3.0844465292
 H         -2.2668661631        2.2681442112        3.7598085204
 O          4.1935421621        2.0178193846        1.5733619433
 H          4.8135837408        1.4649764755        1.0513406061
 H          4.2475301029        2.9192542195        1.2043945546
 O         -1.2075625001       -4.4172003133       -0.9135731874
 H         -1.1206898146       -3.4597351634       -0.7239896849
 H         -2.1651197971       -4.5677900962       -0.9258118349
 O          4.0474081190        1.0294688844       -1.9539401264
 H          3.5600412540        0.1907562604       -2.0863153092
 H          4.6764323787        0.8285815966       -1.2145662104
 O         -5.7612320729       -1.4392673744       -2.9459530388
 H         -6.4832775886       -0.8036523950       -2.7504032288
 H         -5.2703933952       -1.0916966630       -3.7155653823
 O         -3.9235878046       -0.4132513901       -4.6726056113
 H         -3.9242965075        0.4237486215       -4.1785392989
 H         -3.4121482863       -1.0605706526       -4.1493386587
 O          5.3992027594       -2.2195224277        0.2347004832
 H          5.9956733509       -2.1355333725        1.0024333183
 H          4.5593210016       -2.5745715299        0.5889794772
 O          7.1667642393       -0.4098024494       -3.2587643853
 H          6.6672921473        0.2138133202       -3.8048283361
 H          6.5459522546       -1.1299701413       -3.0422240602
 O         -5.9996418522        0.6239567068       -0.0194894362
 H         -5.2430885684        0.0060275922       -0.1363927331
 H         -6.4973757382        0.2810638136        0.7532868865
 O          2.4716408346       -5.5292337541        2.3740184819
 H          2.7654234684       -6.4380036035        2.3170022987
 H          1.5773604647       -5.4899439518        1.9451244916
 O         -0.3389683485        2.7497183122       -4.1738431769
 H         -0.8115704942        2.0491618972       -4.6576076719
 H          0.5208566576        2.3476068175       -3.9504949309
 O          3.0944652233       -3.0793028455        1.2968241309
 H          2.7754713735       -2.4758309803        2.0089062432
 H          3.0418243909       -3.9770471518        1.6570754380
 O          7.3582426384        1.3047350628        2.5202912208
 H          8.2495960855        1.0138547308        2.2885526873
 H          7.2010543710        2.1108077935        1.9880108363
 O          2.3453234054        6.2621384980        0.0996706114
 H          1.5365486245        6.1362323471        0.6349050053
 H          2.3634116882        7.1859200835       -0.1499849365
 O         -2.6936221314        2.5774385404        0.1186291728
 H         -2.3354384660        2.8486826298       -0.7503508555
 H         -3.6470421261        2.7834948542        0.0665668044
 O          5.2359239602       -2.2168108131       -2.5342181251
 H          4.3660339716       -1.7760152317       -2.4755697621
 H          5.4528230104       -2.4537357321       -1.6202182526
 O         -4.9114325715        3.5190463391        2.5867920297
 H         -5.6044125625        2.9469892059        2.9469762884
 H         -5.0911154370        3.5635893107        1.6342773537
 O         -6.5844444045        2.8160829786       -2.6749405349
 H         -7.0141230662        3.2617870832       -3.4049959678
 H         -7.0710894847        1.9805118674       -2.5278352598
 O         -4.5695213910       -0.3270491750        2.1206503656
 H         -4.8025038135        0.4422415496        2.6475182161
 H         -3.6977947760       -0.1419439083        1.7137732830
 O          3.6116020484        3.9672964446       -4.3433996771
 H          3.0024303865        4.7088870655       -4.4145810294
 H          3.0293523545        3.1784669575       -4.3006430889
 O         -4.1968092992       -1.2120982919       -0.7192488769
 H         -3.4389913420       -0.6668144752       -1.0143856676
 H         -4.6989448796       -1.4241745095       -1.5312595928
 O          2.1904065734        4.2285197290        2.7741849528
 H          3.0278458326        4.3770913745        2.3304717073
 H          2.4042901345        3.7632887751        3.6210739043
 O         -2.0912586253        4.3557544216        2.0766078670
 H         -2.9660821553        4.5365339141        2.4280223338
 H         -2.2233845599        3.6805032891        1.3780788171
 O          4.8376396695        3.6506124539       -2.0086046881
 H          4.4421834086        3.9491819332       -2.8597028898
 H          4.4460243072        2.7743096396       -1.8645994856
 O          2.0639645276       -3.9783547844        4.5754280460
 H          2.7691019970       -4.1002920902        5.2115352249
 H          2.2396973409       -4.5835861863        3.8277299469
 O          0.1328872766       -0.8266576226       -3.1910054625
 H          0.3433946281       -1.5946502739       -3.7565796786
 H         -0.4318969285       -0.2512137437       -3.7416414169
 O          0.9906684511       -2.8616306923       -4.7245240010
 H          0.4471578306       -3.5703725923       -4.3417274348
 H          1.9220856946       -3.0969045956       -4.6151797259
 O          7.4710547857        3.3603404284       -1.7027466568
 H          7.9496023208        3.9791442806       -2.2535992996
 H          6.5124446956        3.4787573973       -1.8956753912
 O         -4.0326458440        1.8985985723       -3.1128489864
 H         -4.9406116716        2.2007725581       -2.9371712568
 H         -3.4589188653        2.6678093119       -2.9684750138
 O         -7.5594660834        0.3435419271       -2.0859555756
 H         -8.3388907070       -0.0905042720       -1.7061579888
 H         -6.9697040744        0.4719014097       -1.2964840286
 O          2.0273561056        3.9281283647       -1.4416095930
 H          2.3137756861        4.7192316859       -0.9663996606
 H          1.8472958075        4.2190349288       -2.3531088701
 O          1.0453635857        5.0850968297       -3.7223057784
 H          0.4591256282        5.6142219087       -3.1719052753
 H          0.4882439380        4.3814454669       -4.0953355293
 O         -9.1362423106       -1.1448860452       -0.3920474420
 H         -8.6814880624       -2.0273806536       -0.4960678306
 H        -10.0675141830       -1.3378776972       -0.2877735911
 O         -1.2809821226        0.4295780444       -5.1321700719
 H         -0.6680046150        0.0444541375       -5.7960218803
 H         -2.1789958149        0.1328616616       -5.3378655723
 O          0.6592968977       -0.7731808321       -6.5131784439
 H          0.6813286651       -1.6419112851       -6.0841359498
 H          1.5239351864       -0.3864395760       -6.3258316533
 O          5.2344099273        1.2913083365       -4.3613792570
 H          5.1110976639        2.1935298755       -4.6666913143
 H          4.8340930353        1.2436805417       -3.4645006565
 O         -5.3148817756        3.1532966573       -0.1172491339
 H         -5.7017934106        3.4511261646       -0.9466948151
 H         -5.6139747623        2.2189444744       -0.0237369477
 O         -6.3291229330       -4.0170789849       -2.7292290324
 H         -6.6975087464       -4.3645614428       -3.5407445256
 H         -6.1373454635       -3.0619934662       -2.8815786979
 O          1.6812720812       -3.1294266246       -0.9870253062
 H          2.1687252967       -3.1747080530       -0.1441222120
 H          0.8146673091       -2.7466353847       -0.7835351967
 O         -7.5316316372       -0.6072438762        1.7950838396
 H         -8.2218359025       -0.7637532650        1.1246142675
 H         -6.9661393605       -1.3987752353        1.7922116656
 O          9.2687478562       -0.2420191460        1.1920471106
 H         10.2103695137       -0.2890679094        1.0284013251
 H          8.8593563279        0.0553400135        0.3577092929
 O          0.9592818801        0.7589262233        5.0647051074
 H          0.6937205703        0.1332257593        5.7499753057
 H          0.5702577279        0.3939283954        4.2357624341
 O         -2.5051409062       -0.4707105404        4.6908250722
 H         -2.9912392715       -1.2361989449        4.3147583402
 H         -2.8963128040        0.3408969066        4.3065096014
 O          2.7837483803        2.8145761849        4.9141588427
 H          3.6795956617        2.4545526872        4.8358365292
 H          2.2026276394        2.0489781009        5.0469553032
 O         -4.9036766610       -4.8249267040        3.9416100928
 H         -4.0507340076       -5.2707913703        3.8687265557
 H         -5.3788583434       -5.0577450608        3.1377288514
 O          6.8438836062       -1.3392621947        2.3302684331
 H          6.8439271490       -0.3574349789        2.3229074849
 H          7.7736842516       -1.5615526146        2.2282709882
 O         -7.8476311288       -3.4059056383       -0.4843421511
 H         -7.3983771538       -3.7304404150       -1.2800028422
 H         -7.1331359465       -3.2238670752        0.1619481279
 O         -2.6429874008       -2.2306712195       -3.0761483520
 H         -2.2084854295       -1.5026510968       -2.6009563842
 H         -1.9533079368       -2.8442058817       -3.3768524715
 O         -0.1160579992        1.3737950272       -0.5560163755
 H          0.6287430114        0.7908922322       -0.3352811165
 H         -0.1703308168        1.9263949202        0.2410141798
 O          2.0022702344        0.1055911019        0.8088639565
 H          1.6537520877       -0.2751689651        1.6199218771
 H          2.5471270422        0.8470581783        1.0992829252
 O          2.0427702881       -5.6610487149       -1.9091077447
 H          2.2135872529       -6.0854550439       -1.0687850545
 H          1.8858353409       -4.7207830101       -1.6982500125
