  147
       -244.14894692
 H         -0.9689594042        0.0040051902        1.2803554525
 C          0.0881376875       -0.0710323960        1.0092017565
 H          0.6921623151        0.0093789259        1.9131356886
 C          0.4338401545        1.0493686480        0.0412894357
 H          0.2402606962        2.0096965472        0.5151063537
 H         -0.1879121214        0.9528144125       -0.8487664188
 O          0.3731078693       -1.3396706381        0.4599174569
 H         -0.0725868281       -1.4299597038       -0.4137477530
 N          1.8521281910        0.9748645334       -0.3468083795
 H          2.0669544309        0.0704075438       -0.8364957908
 H          2.4615314055        1.0308205350        0.4970025419
 H          2.0554524483        1.7645511970       -1.0022240230
 O         -0.4695494800       -1.9957009258       -2.0286660319
 H         -0.4704936855       -1.2438469810       -2.6575279757
 H         -1.3038356399       -2.4643721606       -2.1787736034
 O          2.6694255595       -1.1719140871       -1.7710389011
 H          2.2835642639       -1.0521903204       -2.6573636545
 H          3.6256764175       -1.0317922545       -1.9086590004
 O          5.3227921225       -0.7392890537       -1.9612747099
 H          5.5856395864       -0.8993915002       -1.0223769171
 H          6.0369936149       -1.0931020056       -2.4943745334
 O         -0.5085556774        0.0311203960       -3.7998169890
 H          0.4210155703       -0.0183197658       -4.0896365436
 H         -0.6282613011        0.9001056352       -3.3825645960
 O          2.1846829140        4.7693477857       -0.0592723154
 H          1.5380165144        4.4781049023        0.6212122725
 H          2.2129748064        5.7252969380       -0.0158111502
 O          5.9425538592       -1.3288905437        0.5511466041
 H          5.1680706549       -1.9215422105        0.6384548451
 H          5.8437579523       -0.6289611407        1.2200282605
 O         -2.2061127175        3.5691456180       -0.7354930648
 H         -2.0634552111        3.4229268154        0.2084221434
 H         -3.1611849651        3.5113112434       -0.8821094290
 O          3.1172863569        0.6548297482        2.0799067079
 H          2.9822478846       -0.2830190516        2.3802757293
 H          4.0753349941        0.8016140600        2.1363261537
 O         -0.8103482633        2.6121961462       -2.7596406186
 H         -1.1470659879        3.1282590386       -3.4936325673
 H         -1.3392402131        2.8853067566       -1.9710210495
 O          3.2538128419        2.0458768242       -4.1622284738
 H          2.6680938214        2.5543486389       -3.5784366566
 H          4.1066558792        2.0387736410       -3.6857667413
 O         -3.1178721335       -0.8735248906       -3.6109794331
 H         -3.0056569492       -1.8057183549       -3.3651740855
 H         -2.2996770501       -0.6052355223       -4.0507877294
 O         -1.1304151919       -1.2534054989        4.3009382437
 H         -0.5227241752       -1.8217276500        3.7512254806
 H         -1.0266988957       -1.5453724233        5.2069845087
 O         -2.6190505015       -1.9240848597        0.3032347208
 H         -3.5811682226       -1.8749339934        0.1259607237
 H         -2.2550574946       -1.2162540387       -0.2766910557
 O          5.2156065257        1.9327307548       -2.3043142079
 H          5.2327078452        0.9603835646       -2.2184140372
 H          4.7322703381        2.2553983865       -1.5155953704
 O          1.6969070457        2.2189207453        3.6498577593
 H          2.2515989008        1.6377461788        3.0698981986
 H          2.2576454853        2.5270459765        4.3614931860
 O         -5.7958365610       -1.9227110575        2.5999692197
 H         -4.8410898578       -2.0973989973        2.7900228982
 H         -6.2988923535       -2.5351276722        3.1368005331
 O          7.6604079086        2.0610165971       -1.1323452103
 H          7.9068321733        1.1200132601       -1.1310385923
 H          6.8980690177        2.1352364307       -1.7404898989
 O          3.6292670458       -2.7116743897        0.3581581282
 H          3.7215573234       -3.6136732040       -0.0074637316
 H          3.1609372629       -2.2123824754       -0.3298575794
 O          0.2833478828       -2.8100933948        2.7432426587
 H         -0.3128555906       -3.6036209252        2.7160451838
 H          0.2054939677       -2.3809972697        1.8715872773
 O         -3.1941870251       -2.3562224990        2.8912050012
 H         -2.9044237573       -2.1300760612        1.9824582467
 H         -2.6065875213       -1.8562483831        3.4849100315
 O         -4.9309896490        2.8970312204       -0.8666268305
 H         -5.6832756366        3.2120521315       -0.3534406688
 H         -5.2832652460        2.1373669473       -1.3766120277
 O          2.1312855766       -0.2939449565       -4.2782208058
 H          2.5794852514        0.6022901098       -4.2627810235
 H          2.3925522341       -0.7092028805       -5.0999229108
 O         -5.2528699524       -1.6207982639       -0.0873983001
 H         -5.5035735631       -2.3265893109       -0.7108704092
 H         -5.6435163807       -1.8104340535        0.7806724432
 O         -0.9568133816        1.4638814946        3.9369271012
 H         -0.0094774087        1.6666411705        3.9503932456
 H         -1.0471457909        0.5036007739        4.0570300249
 O          3.3884265953       -5.0544198519       -0.9123469798
 H          3.4335585487       -5.9722071370       -0.6433998430
 H          2.4435359811       -4.8341331026       -1.0189588947
 O         -5.8684673785       -1.0950913109       -3.6579627066
 H         -4.9409530497       -0.9103125679       -3.8741217646
 H         -6.1203676192       -0.4070331447       -3.0198700587
 O          5.8360842973        0.7557037904        2.3373214475
 H          6.3284265203        0.6449433730        3.1511671046
 H          6.1756619379        1.5666055767        1.8940204450
 O          8.1309041061       -0.6752753944       -1.0116186346
 H          9.0089685285       -1.0122148081       -0.8326789496
 H          7.5377756445       -1.0384800292       -0.3350840286
 O         -1.7360357146       -4.4127805762       -0.1667858000
 H         -2.0002597678       -3.4862763278        0.0273018481
 H         -0.7855135725       -4.3906078790       -0.3696941886
 O         -1.5949375180       -4.6332035711        2.5521242161
 H         -2.3361498627       -4.0573847853        2.7978122059
 H         -1.7013814112       -4.8083376611        1.5976350680
 O         -4.5322813316        3.2723573325        3.1523298877
 H         -5.0004691440        2.4327195530        3.0078076547
 H         -4.7033783790        3.5334566464        4.0573016720
 O         -3.6245980393        1.1759702841        0.7082591497
 H         -4.1361531404        1.8250445198        0.1779171702
 H         -2.9929561460        1.7121526106        1.2297049603
 O         -7.2595256615        1.9963992521        0.5753219115
 H         -6.7403150480        1.5797188090        1.2992662950
 H         -8.1150031138        2.2185043536        0.9411020310
 O          1.7612265366        3.0224514862       -2.0976622028
 H          1.8637169129        3.7998346292       -1.5241344255
 H          0.8154873477        2.9491594297       -2.3382325710
 O         -5.6466525969        0.8271173569        2.3918488718
 H         -5.8391091427       -0.0999114711        2.6023954581
 H         -4.8730710757        0.7910219637        1.7823678232
 O          0.5121681472        3.9033831926        1.8139419188
 H         -0.4427118291        3.7704123274        1.9061286536
 H          0.9300422223        3.3815901431        2.5195979251
 O          0.9296710438       -3.8942361723       -0.7301743437
 H          0.6334108204       -3.2644877218       -1.4129245935
 H          1.2076002168       -3.3451291097        0.0110122626
 O         -6.0972866362        0.5654734996       -1.4749262541
 H         -5.6949011564       -0.1527034393       -0.9460988704
 H         -6.7948149483        0.9353371880       -0.9126876689
 O         -2.8855803854       -3.4192054015       -2.4690304482
 H         -3.8546982605       -3.4384954544       -2.3771723732
 H         -2.5579999243       -4.0348551378       -1.7896338865
 O          4.0620578752        2.6867067092        0.0276733948
 H          3.5249814864        3.4925228514        0.0203413381
 H          4.8922262997        2.9025233617        0.4778640248
 O         -2.0842734669        2.9032162441        2.0584408609
 H         -2.8948601744        3.2643493878        2.4668409005
 H         -1.6802792202        2.3424292386        2.7668174965
 O          6.6346207070        2.9433163513        1.0645999347
 H          7.1846061512        3.6620604379        1.3769221731
 H          7.0728015089        2.6072285410        0.2216178095
 O          2.8610172432       -1.8427548353        2.8180266026
 H          1.9898847591       -2.2345296108        2.9853780233
 H          3.1869736969       -2.2820000556        2.0133907278
 O         -5.6346443129       -3.2498856194       -2.2045114106
 H         -6.2229242955       -3.9376570219       -2.5161285072
 H         -5.7719144382       -2.4644288590       -2.8113906044
 O         -2.1386401243        0.1451165839       -1.2730149619
 H         -2.7445849756        0.6059346647       -0.6661989191
 H         -2.6377535549       -0.0756482361       -2.0788754824
