  99
       -167.95073347
 O          3.3978721397        0.6167304608        2.3414994383
 H          2.8402871323        0.3623213857        1.5672084968
 H          4.2644716183        0.2273615858        2.1524818442
 O          2.5431613105       -2.6586655780       -0.2969591027
 H          2.9648881380       -3.0150483791        0.5152824502
 H          3.1510477877       -1.9804091313       -0.6095112459
 O          0.7421891516       -0.6378182368        5.5554203462
 H          1.1403570926        0.2380224748        5.3120575353
 H          0.7737822152       -0.6998691123        6.5102418005
 O          1.7607449827        0.0247711098        0.3495578327
 H          1.1577789136        0.7688989589        0.5768384143
 H          1.3281939972       -0.7817856548        0.6953852387
 O          1.9103774681        0.5743183618       -2.2928976818
 H          2.7947709601        0.9568885110       -2.3921386302
 H          1.8617762159        0.2898597591       -1.3574559687
 O          0.1817664465        2.6505646220       -2.5045538068
 H         -0.7010031937        2.2932906517       -2.6760918208
 H          0.7913460799        1.8908151167       -2.5632029103
 O          0.0948982254       -2.0872072283       -1.2956301966
 H          0.9478548784       -2.3421799567       -0.8965666723
 H          0.3035026863       -1.9104293772       -2.2479427499
 O         -2.2192981479       -3.2006605339       -2.3097575757
 H         -3.0272185063       -3.0971137619       -1.7872625582
 H         -1.4588021155       -3.0622025127       -1.7284869610
 O          2.3578762278       -1.6131695676        3.6139019672
 H          1.8582363424       -1.4233226407        4.4286756090
 H          2.7868574195       -0.7755844824        3.3508145872
 O         -1.1660029873       -0.6592048323        3.5755100406
 H         -0.6356426017       -1.1334997119        2.9103368533
 H         -0.7014813751       -0.7995113182        4.4178486155
 O         -4.7522621898       -1.1705724733       -3.5608345523
 H         -3.9129003325       -1.3222536765       -4.0132903503
 H         -4.7405184309       -1.7195715083       -2.7550145856
 O         -5.7322699105       -1.1256156571        0.7117856614
 H         -5.1967278389       -0.9303276590        1.4898553003
 H         -5.9010277988       -0.2600586448        0.2936815453
 O         -2.1443549359        1.0869649742       -2.7787842457
 H         -3.0836466807        1.3456164276       -2.8404609532
 H         -2.0500290372        0.2874020103       -3.3572056939
 O          4.4412100984        1.5162661452       -1.8720833534
 H          5.0133646997        2.1278986995       -2.3367271895
 H          4.1617883921        1.9744776213       -1.0339697489
 O          0.8422048143       -1.4383293336       -3.7514717791
 H          1.6157832152       -2.0220962869       -3.8439739271
 H          1.2095557172       -0.5896093294       -3.4474191441
 O          0.0192698532        1.8980384434        0.9175021446
 H         -0.1973526862        2.0412483334        1.8710525131
 H          0.3413947150        2.7405144270        0.5481928564
 O          3.8816319283       -3.1839899593        1.9432678042
 H          4.5712546954       -2.5125891100        1.8317751366
 H          3.3912976193       -2.9172321233        2.7321771029
 O          1.1732066976        3.8918800753       -0.4110369209
 H          1.0855569417        4.8428910731       -0.4817161177
 H          0.8134318658        3.5109883304       -1.2536826048
 O          1.8219525177        1.5609531111        4.5718925387
 H          2.4433548833        1.4154420990        3.8466554837
 H          1.0288769635        1.9729561155        4.1922491119
 O          5.4341236641       -0.9319276524        1.2682762283
 H          6.3874957831       -0.9122880987        1.3586605728
 H          5.2294964978       -0.9955479297        0.3143711717
 O          0.5071945724       -1.9061128705        1.7770973620
 H          1.2285708174       -1.8899827832        2.4609941200
 H          0.5224146108       -2.7832929235        1.3896174326
 O         -3.2913585429        2.5299611874        3.7543467290
 H         -3.9348019396        2.9333752911        4.3372723462
 H         -3.7017970029        1.7365113961        3.3770854661
 O         -4.8286961316        1.3557576344       -2.9798489439
 H         -4.8808474022        0.3850672969       -3.2200470806
 H         -5.2504708988        1.8323468044       -3.6960862286
 O         -5.8488044481        1.3441707952       -0.4576227723
 H         -6.6903270087        1.8018024201       -0.4676279993
 H         -5.4944349303        1.3836201361       -1.3680863574
 O         -1.9280284239       -1.2149930639       -4.0534490569
 H         -1.0184788329       -1.2787992811       -4.3707537681
 H         -2.0347239532       -2.0000162914       -3.4647997447
 O          4.8292150676       -1.0799017748       -1.4193416099
 H          5.6094117827       -1.3462858564       -1.9105240269
 H          4.6857288539       -0.1251203141       -1.6148291742
 O         -0.6462836682        1.9831719455        3.4405777831
 H         -0.8495845013        1.0252803669        3.5347386020
 H         -1.4858584680        2.4287412935        3.6414409886
 O          3.6013616137        2.7246678893        0.2922362378
 H          3.5052488407        2.2407579146        1.1225853137
 H          2.7572823533        3.1711910369        0.1053471966
 O          3.1452886095       -2.7634933245       -3.1677757926
 H          2.9159813665       -3.4884239844       -2.5800515292
 H          3.6904260746       -2.1606108498       -2.6467977506
 O         -4.6977174235       -2.6146496705       -1.1950130403
 H         -5.1134530344       -2.0866023830       -0.4637062975
 H         -5.2746749613       -3.3689302799       -1.3272330972
 O         -2.3707270569        1.1730772216       -0.0930309766
 H         -1.4821822162        1.3283154306        0.2676605879
 H         -2.2408861406        1.0521307461       -1.0525601586
 O         -3.9050353392        3.4328761159        0.2965736618
 H         -3.1806896149        2.7886272808        0.2187980714
 H         -4.6854656445        2.8804057385        0.1844355414
 O         -3.7441102866        0.0881687960        1.9854046382
 H         -3.0341268090       -0.5131651778        2.2247117179
 H         -3.4403884142        0.4932310636        1.1453554418
