12
 energy: -14.886870789188 gnorm: 0.000019411370 xtb: 6.5.0 (746241f)
C           -6.49217802969743        1.67437041763484        0.44714659587736
C           -5.12069916332949        1.10987094417612        0.05966936567331
O           -5.37248771684289        0.31747010614341       -1.06309748595155
H           -4.56157408297269       -0.08886506267168       -1.38888601181204
H           -4.70434934153155        0.51414996524893        0.88650919326486
H           -4.42221962459522        1.92790135553860       -0.17452577663179
N           -6.42363944296069        2.55864622258186        1.64360235495505
H           -5.79756249154708        3.35534181248974        1.46286891207989
H           -7.35705540401319        2.92080357658146        1.87795592990822
H           -6.88620121218648        2.23308527097299       -0.40316140924070
H           -7.16461169769531        0.83796985517275        0.64388833535165
H           -6.06079179262797        2.03629273613098        2.45282989652573

