  114
       -193.39758161
 O          3.3299010345       -2.3823502560       -3.1413759032
 H          3.9178909480       -1.6220798410       -3.2592156221
 H          3.6444914558       -2.8589014224       -2.3564708852
 O          1.5186291366       -2.5505652407        0.1675557102
 H          0.6728106064       -3.0476821333        0.1412189325
 H          2.2130441395       -3.1085168333       -0.2012569429
 O         -0.4190543882       -3.7820017346        3.2497881375
 H         -0.1387007890       -4.4471065823        3.8784765444
 H          0.3144595345       -3.1296644261        3.1737305335
 O         -0.7540505061       -0.4302864643        2.1598085674
 H         -0.8227536478        0.5087281085        2.4355585091
 H         -1.4663095024       -0.9144365925        2.6315558170
 O         -7.1873812552        1.8006922165        0.5194322889
 H         -6.7375359245        1.9628338484       -0.3293480610
 H         -8.0540929756        2.2027184987        0.4617793203
 O         -2.5043509419       -1.9349394633        3.5245193872
 H         -1.9197189575       -2.7085829661        3.5409842353
 H         -3.3247249683       -2.2097124612        3.0878364663
 O          0.1866619961        0.4645196048       -4.1507091755
 H         -0.7100262227        0.4484027253       -3.7440656644
 H          0.0541389336        0.4447602602       -5.0991394667
 O          0.8592215728       -1.6824894002       -2.5057885170
 H          0.6173893082       -1.0042450598       -3.1531183384
 H          1.7239749643       -2.0446016516       -2.8024738924
 O         -0.8510272913       -3.7133364547        0.4969864680
 H         -1.5116209850       -2.9889626026        0.4679319715
 H         -0.7710178213       -3.9507391161        1.4330024121
 O          3.6982160026       -0.5217911695        2.9182355747
 H          4.1026141265       -0.6821746174        3.7708184157
 H          2.8414440444       -1.0185091725        2.9101085503
 O          1.5735610206        3.3163580353        2.5107917817
 H          0.7001903812        2.9427750470        2.7035149731
 H          1.4792031699        3.8370554830        1.6980766486
 O          3.6802290360        1.9365868796        1.7015106652
 H          2.9539724245        2.4712318148        2.1003249097
 H          3.6855096644        1.0958406188        2.1883956936
 O          2.5694319579        1.3293583119       -2.9177941289
 H          3.3393734359        0.8734407254       -3.3052385704
 H          1.8050117169        1.1648155887       -3.4920655880
 O         -3.2418344947        2.5226346687       -1.9182540711
 H         -2.8602108314        1.7301492680       -2.3300416606
 H         -4.2078673491        2.4016459684       -1.9479900586
 O          4.0691401264       -3.3564447898       -0.6648257039
 H          4.2768431517       -2.4777111114       -0.2845353721
 H          4.8024237589       -3.9377152222       -0.4628871770
 O         -4.7975780054       -2.7310379080        2.0619462871
 H         -5.3745337913       -3.4545022720        2.3083745141
 H         -5.3745310903       -1.9855230110        1.7943390325
 O          7.7741679456        1.2552155531        0.7478506198
 H          8.6172695367        1.6788424205        0.5828369295
 H          7.2585004086        1.8722560605        1.3061415295
 O          1.4129143344       -1.8583678187        2.6979290915
 H          0.6531359897       -1.2373576322        2.6075510926
 H          1.5618431420       -2.1660829989        1.7692497688
 O         -5.9115717315        1.8794473261       -1.9513323929
 H         -5.8044935470        0.8925392796       -1.9240639510
 H         -6.4295783355        2.0733677444       -2.7334665596
 O         -5.6316799725       -0.7190346889       -1.6947567818
 H         -4.8025290681       -1.1684402414       -1.8896142925
 H         -5.7842842950       -0.7896809413       -0.7267001978
 O         -2.9286821779        0.8829198929        4.0636339564
 H         -2.7791624431        0.0038485396        4.4239464150
 H         -3.3544940354        0.7322435049        3.2007114125
 O         -5.9489793330       -0.5629442072        0.9749971323
 H         -5.1114373155       -0.0842171064        1.1734037880
 H         -6.6209307904        0.1390393977        0.9919074901
 O         -2.7373348002        2.9252742608        0.6173469408
 H         -2.8499260607        2.8270833563       -0.3675164756
 H         -3.3508455232        3.6122291284        0.8828517717
 O          4.0167065604        2.8219186382       -0.8810142017
 H          3.4308455974        2.4011657629       -1.5247630758
 H          3.8532593663        2.4426460453        0.0034493650
 O          4.3783056552       -0.8516429267        0.2853804553
 H          5.0232995528       -0.2342918809       -0.1357837429
 H          4.4103322423       -0.7292806854        1.2471966777
 O         -3.3491568749       -2.3261210308       -2.4089658680
 H         -2.4525644664       -2.7933863762       -2.4060451111
 H         -3.9312312121       -2.9064286517       -2.9023085090
 O         -3.5579317252        0.4851596581        1.4136585523
 H         -3.2649626265        1.3437240655        1.0508139917
 H         -3.0661273545       -0.2206790110        0.9584712775
 O          4.8740923934       -0.0467881946       -3.3801600830
 H          5.3393659567        0.2153797083       -2.5579583363
 H          5.5090313310        0.0321050491       -4.0931038181
 O         -0.9998919794        2.1866651957        2.7444014396
 H         -1.5363214176        2.5821946033        2.0411022556
 H         -1.6360415574        1.9461458855        3.4499696173
 O          5.8864330580        0.8603184905       -1.0588193554
 H          5.4144637578        1.7167877967       -1.0204860165
 H          6.6834076729        0.9648892318       -0.4906982213
 O         -2.8546954877       -1.9223183013        0.2966794320
 H         -3.1072311806       -2.0349635253       -0.6333629118
 H         -3.5460884485       -2.3375063185        0.8380571170
 O          1.8054547512        4.3493464277       -0.0736430502
 H          2.6908615005        4.1176269568       -0.4006858005
 H          1.6499969198        5.2620047537       -0.3173663972
 O          6.1622200034        2.9591024309        2.0725003063
 H          6.1808522048        3.4461246833        2.8963406631
 H          5.2422681962        2.6502595546        1.9425601264
 O         -2.1443963460        0.1278146612       -2.8421302642
 H         -1.7091927570        0.0048992695       -1.9737670490
 H         -2.6579269439       -0.6846764118       -2.9647775806
 O         -1.0724706905       -3.5182853375       -2.2928326615
 H         -0.3457714903       -2.8631740301       -2.3964767551
 H         -0.9745808007       -3.8741667219       -1.4005858335
 O         -0.7087787532       -0.3633501582       -0.5991528351
 H          0.0582344758       -0.8519365375       -0.9387698011
 H         -0.6735221727       -0.4317954138        0.3714465437
 O          0.0715530312        2.2149351904       -1.3610531772
 H         -0.2161434857        1.3801965831       -0.9637085142
 H          0.9405963834        2.0380590467       -1.7294841495
 O         -0.9370113623        4.8399938231       -0.8412920642
 H         -0.2568997264        4.1681578643       -0.6810473769
 H         -1.5770087817        4.3754148153       -1.3849377915
