91
 energy: -147.740883980479 gnorm: 0.000215230122 xtb: 6.5.1 (579679a)
C            1.43189584802578       -0.16210926348310       -0.19927485204294
C           -0.50473913613303       -0.77567743824969        1.11884749828344
C           -1.69319096836055        0.05324170596770        0.65537778914858
C            1.00030948710354        1.22146598011788       -0.43980159538929
H            1.91650048578609       -0.58991733374635       -1.08287645828528
H           -0.85291526646284       -1.73107912334610        1.50729816162659
H           -2.20693654905731       -0.45596538591986       -0.15337634361778
H            0.30942720643994        1.45594271848478       -1.22405684348966
H            2.12338601609458       -0.19228868212631        0.64749207687362
H            0.04815536910158       -0.26220135065278        1.90765830644303
H           -2.38408651524248        0.18526413711809        1.47650191752137
H           -1.36395458552536        1.02488047887681        0.30763250167933
O            0.37633269330972       -1.10783163164039        0.05675007375878
N            1.26919167260885        2.22351441331428        0.49918646305339
H            1.27976334125076        3.14861453793969        0.08789695416068
H            2.11967367650989        2.04405411797142        1.02262240212139
O            1.53007478542065       -3.53612368065205       -1.75586049046045
H            0.56021180419957       -3.45868323500564       -1.71531773774847
H            1.84129363357549       -3.39142987701918       -0.84052211135072
O           -3.92906128258625        2.53462973678207        1.56122441384188
H           -3.47134693136527        2.12206854128048        2.31391256216652
H           -3.24976649758514        2.97692227153845        1.04013344090757
O           -1.09819121414900       -2.75681829691313       -1.44905621618527
H           -0.58246802954067       -2.15545451743875       -0.87284266676592
H           -1.50198962558219       -2.16078393704988       -2.09691501122946
O           -1.89938088301076       -0.54529232049945       -2.94449578061036
H           -2.41196152791015       -0.58617891054099       -3.75288409900803
H           -2.25033214532887        0.22851802295039       -2.44438173359202
O           -2.82853952115430        1.74370998438641       -1.92446279603945
H           -2.51272798895541        2.21699662069503       -1.14249870375895
H           -2.40284492917401        2.20674283178316       -2.67961041583985
O            2.37673537505256       -1.69831713103211       -3.35756900252731
H            2.03836672595464       -2.40029969646031       -2.71528878811205
H            2.48612046525973       -2.14994133062542       -4.19543275163601
O           -1.35862004593515       -3.33924398977501        3.04565238433341
H           -1.77471839107369       -3.54435920631960        2.16763766677759
H           -1.49573923648341       -4.11279028186654        3.59355283555394
O            3.95642823817359        0.94116281311777        1.70775178341519
H            3.30725365027358        0.67189386158079        2.42658514213145
H            4.72031605834685        1.28257108904464        2.17472630347664
O            0.09016688530911        1.95963371876227        3.09966992141074
H            0.21820947055350        1.98198917572846        2.13870194103209
H           -0.82929256745729        1.69102518222242        3.26822917994481
O           -1.55791387743713        3.40586919911251        0.07806672825926
H           -1.06604077288893        3.47134898066852        0.90060125291742
H           -0.96945437690395        3.75846052258357       -0.61009635444402
O           -4.51431304853841       -1.64907546526981        1.08317382202424
H           -4.58649037306272       -0.79656019392888        0.58046569606321
H           -5.41285186146750       -1.96201913411287        1.19176591940945
O            4.56939089809898       -1.49846005285628        0.51177363665772
H            4.63952350389304       -1.27601970891706       -0.42945342648664
H            4.38572265096971       -0.66113386853759        0.97381961389147
O           -2.58973777882377       -3.64682928909551        0.71994467747053
H           -3.28256372414162       -2.96725525753394        0.76682825542798
H           -2.07819002809428       -3.45267062354371       -0.08614764714604
O            2.56797088150363       -3.21368582171120        0.77990224225421
H            3.30787968079790       -2.56035818846809        0.69360452351796
H            2.97616685952892       -4.03547971317039        1.05627415406572
O            0.33775306076778        4.23586571095573       -1.81274676460040
H            1.08600415385918        3.66878961720812       -2.16741335027485
H            0.53209618899830        5.13272279513931       -2.08561964348426
O           -3.18591986067237       -1.27801366517419        3.49116208344523
H           -3.69379718078404       -1.40551633238940        2.66871004160170
H           -2.46459903745081       -1.92953276138007        3.45255999245711
O            4.04248104775358        1.73464659481238       -1.06676570976365
H            4.30076893834949        0.90397131790726       -1.49528188217742
H            3.99052510354882        1.53424839428910       -0.12308164803835
O            1.35759439025801       -2.28369022142154        3.14121394286272
H            0.44551203840400       -2.59889248815024        3.19210957226543
H            1.69464483905143       -2.57927076349458        2.27858096170502
O            2.17128806926677        2.69975326349098       -2.82389447197551
H            2.85445799238774        2.40872114259539       -2.19010343624827
H            1.70654768239161        1.89596436643231       -3.11067048606188
O            2.24957685235040        0.28203639139453        3.54571114676067
H            1.46881697703100        0.86638016478743        3.54263986757227
H            1.92512904724961       -0.63857169141759        3.48669600184706
O           -1.15227240155615        2.80433585796910       -3.71886895676648
H           -0.51610229613586        2.11120543849858       -3.93509461019840
H           -0.68455153267098        3.41115638148599       -3.12185521981056
O           -2.54999614134259        1.27821502554734        3.64269081633405
H           -2.78995190188029        1.58142564913589        4.51913287854970
H           -2.76344873173564        0.30790371004109        3.62204982472093
O           -4.83355680571907        0.65422666605168       -0.17233028548995
H           -4.30236950311956        0.91799915305846       -0.93368248275910
H           -4.65921192061184        1.34333921045502        0.50230429431945
O            0.61486458316564        0.46738920494209       -3.58290296015470
H           -0.22003102367505        0.06113484309335       -3.28745191406917
H            1.26824822427915       -0.24827126302856       -3.53715513954942
O            4.59110225416689       -0.75518489148130       -2.17972773839620
H            5.31595200077634       -0.89691540288628       -2.78906998014658
H            3.77354437567600       -1.08162269684339       -2.62026076454124
