  117
       -193.22878052
 H          0.3673924089        0.0388460273        0.1355094420
 C          0.6795571765        0.2448596243       -0.8928662285
 H         -0.1260384622       -0.0212356138       -1.5758575790
 C          1.9173153192       -0.5803548911       -1.2185559985
 H          2.1660250530       -0.4869845188       -2.2736939684
 H          1.7258188552       -1.6210949669       -0.9771071837
 O          1.0118646587        1.6151585042       -1.0182975964
 H          0.1875646404        2.1437463694       -1.0897537498
 N          3.0473317964       -0.0829103220       -0.4165819855
 H          2.7382179991       -0.0333246710        0.5854822592
 H          3.3158177861        0.8532162997       -0.7914452847
 H          3.8718231571       -0.7244742530       -0.5035035699
 O         -1.3973519761       -2.8486076448        2.9782529360
 H         -1.4185683482       -1.9119695024        3.3284266853
 H         -1.4394715227       -3.4203282578        3.7451971902
 O          0.9371930322        3.8269667623       -2.9750140655
 H          1.5695119006        4.1512162845       -2.3165921557
 H          0.0996968895        3.7098350271       -2.5036695377
 O          3.8324144408        2.0499155021       -1.9512123594
 H          3.5708495245        2.9453677060       -1.6744533765
 H          3.2364253334        1.8271085475       -2.6943810920
 O          2.4995752888        2.6486795627        0.9569750085
 H          1.9705151897        2.1921266676        0.2663345451
 H          1.8449068246        2.8341148257        1.6615268492
 O         -3.4619596906        1.6772686458       -1.1694989271
 H         -4.3264139021        1.3681699045       -1.5222485071
 H         -3.0214177430        0.8450880135       -0.9021915253
 O         -2.4131409334       -0.5915049512       -0.1308013561
 H         -2.9284414469       -1.1862688088        0.4517695624
 H         -1.8453381590       -1.1588305303       -0.6840762194
 O         -1.5213971192        1.1515206616        1.6345999967
 H         -2.2740642515        1.7793087531        1.6165266815
 H         -1.7209911004        0.5022812756        0.9263155247
 O          0.2294233139       -0.4495206188       -4.4111511509
 H          0.6032270910       -1.2761579263       -4.0657303260
 H          0.8747619674        0.2558489016       -4.2284500421
 O          3.2268896062       -3.6483395106       -1.8757270664
 H          2.4629163153       -3.3718012130       -2.4092937341
 H          2.8756880635       -4.0401415787       -1.0585813590
 O          0.8883751849       -2.8708765105       -3.1757632727
 H          0.5552187999       -3.5621752864       -3.7502778559
 H          0.2198639689       -2.7522251696       -2.4586810114
 O          0.5715413157       -2.5832604978        1.1711465709
 H          1.1925372970       -3.3337432997        1.0879378408
 H         -0.0939070136       -2.8052932783        1.8513060190
 O          2.4733011527       -4.4099803695        0.7103615210
 H          2.5426746009       -5.3349115396        0.9492768359
 H          3.2747553092       -3.9648815602        1.1046515588
 O         -3.2076092426       -3.6262489743       -0.9390350977
 H         -3.5993894349       -3.0324481781       -1.6072415128
 H         -3.5893833694       -3.3749590913       -0.0914685885
 O          5.9745492733        0.8402998910       -0.8258134244
 H          5.3509187723        1.3393053835       -1.3831057795
 H          6.8332728059        1.2517495715       -0.9264432684
 O          2.8679498479        4.4320841630       -0.9742924932
 H          3.3300362997        5.2407192295       -0.7539020840
 H          2.7314696331        3.9306935128       -0.1355111113
 O         -1.6091141175        4.5586878662        1.1077863546
 H         -2.4062592271        4.0268793505        1.2937321790
 H         -1.8855270219        5.4755755293        1.0930575515
 O         -5.6546340005        1.1978361733        2.2536948714
 H         -6.5016573631        1.5374190243        2.5453671933
 H         -5.8370085334        0.4828090888        1.6117694189
 O         -5.5949752286        0.2608931115       -1.8421568578
 H         -5.1298294896       -0.4789659455       -2.2696781963
 H         -5.9080498716       -0.0921660545       -0.9992154410
 O         -1.1609368035        3.1719105120       -1.2431797858
 H         -2.0097048752        2.7080676052       -1.3406420784
 H         -1.2414552871        3.7202512179       -0.4426936417
 O         -1.9417943283       -0.0310170678       -2.9824440256
 H         -2.2727813882        0.8468953090       -3.1820176039
 H         -1.1833801043       -0.2002694907       -3.5928256286
 O         -1.5138769405       -0.3662081576        3.8093988841
 H         -1.5572478986        0.1871058204        2.9947474108
 H         -0.6914730287       -0.0461983580        4.2395447447
 O         -3.9514014614       -1.7520719040       -2.8006144916
 H         -4.0876724364       -2.0754411798       -3.6918857625
 H         -3.1627141957       -1.1542566444       -2.8365486218
 O          0.8438128891        0.7843534722        4.2526872499
 H          0.7380532137        1.7230144073        4.0637500218
 H          1.2687529007        0.4128218739        3.4588216665
 O          4.5828340111       -3.1782948437        1.6315348370
 H          4.9407204297       -2.7812725219        0.8215396432
 H          4.5397942630       -2.4559179535        2.2785919751
 O          0.3148623058        2.9762378877        2.4592593004
 H         -0.1671357304        3.7600801269        2.1675249250
 H         -0.2346057770        2.2305395553        2.1525112970
 O         -0.8026711649       -2.5366292454       -1.1522930464
 H         -1.5898953066       -3.1245515357       -1.0938733266
 H         -0.3179457576       -2.6087261798       -0.3053482673
 O         -3.6850538647       -2.2379968458        1.5865662906
 H         -2.8970310305       -2.6981325659        1.9268720124
 H         -3.9701863807       -1.7080111538        2.3806570522
 O          4.8112315327        1.2383662832        1.6617454107
 H          4.0464262163        1.8098884501        1.4764873161
 H          5.2869601678        1.0989535556        0.8255041910
 O         -3.6329644432        2.7586776571        1.2463494765
 H         -4.3882395757        2.3457838206        1.6945054656
 H         -3.6835470726        2.4549035982        0.3078432904
 O         -6.0354554834       -1.0050278596        0.6599326522
 H         -5.2497256321       -1.5360379199        0.8640674382
 H         -6.7975587185       -1.5577114603        0.8416162635
 O         -4.2326676875       -0.7485453294        3.6712860587
 H         -3.3403392318       -0.5223463801        3.9801013394
 H         -4.6550155183        0.0746483715        3.3848277756
 O          1.9693882560       -0.4382081029        2.0402404166
 H          1.4550245430       -1.2344868708        1.7963139112
 H          2.7509433630       -0.7328355097        2.5477885625
 O          2.0178244762        1.6265153905       -3.9343014332
 H          1.5154610846        2.4086325999       -3.5749788158
 H          2.3085782238        1.8872843595       -4.8098045579
 O          4.9271948469       -1.9594750327       -0.8069512148
 H          5.6838440648       -1.6984587410       -1.3332882531
 H          4.3906511478       -2.6162433544       -1.3208094297
 O          4.3555590671       -0.8880102110        3.1445316455
 H          4.5973427041       -0.7232999195        4.0564033338
 H          4.6416034041       -0.0915337948        2.6289011691
