  192
       -320.55613479
 H         -0.2705263421       -1.3297538861       -0.5163420263
 C         -0.1777485899       -0.4285188928       -1.1219007194
 H         -0.4363868512       -0.6784712061       -2.1530633468
 C          1.2583571665        0.0723498222       -1.0877330013
 H          1.3459002995        1.0064078464       -1.6397803877
 H          1.8899146124       -0.6779180237       -1.5516661801
 O         -1.0949672707        0.5128339182       -0.5915736191
 H         -0.8599026807        1.3994133961       -0.9732854721
 N          1.6727843272        0.2976665726        0.3038027048
 H          1.4161040876       -0.5332059602        0.8786196162
 H          1.1847103333        1.1518413847        0.6804628835
 H          2.6933479416        0.4527101960        0.4180849660
 O          6.8306785072       -2.6464723822        1.5173865168
 H          6.1462203518       -2.2034381619        2.0660080397
 H          7.5172549431       -2.9455750859        2.1139336675
 O         -2.8009902723        0.7633892730        5.5011904813
 H         -2.6478879542        1.0005445351        6.4154381716
 H         -1.9763468603        0.9971477026        4.9977270056
 O          0.4263467998        2.4013194520        1.4126565184
 H          0.4869810582        3.3408400094        1.1295534690
 H         -0.5323781419        2.2429108418        1.4920925764
 O         -4.0155096942        2.1592576781        3.4612373073
 H         -3.6919696645        1.7538800922        4.2811745196
 H         -4.8355981594        1.6900534337        3.2327924878
 O          0.3962191009        1.2263037110       -4.0888885914
 H         -0.3736984786        1.3866454735       -4.6590000560
 H          0.4938629360        0.2549705963       -4.0633535365
 O         -2.9521504931        0.2794422559       -2.6974878312
 H         -2.5262652304        0.6721584727       -3.4832713233
 H         -2.4034561419        0.4464559403       -1.9176035740
 O          5.0581156578       -1.2343650182        3.0275107376
 H          4.7033449924       -0.5729321567        2.3755061290
 H          5.5227004795       -0.7329683667        3.6990903746
 O         -4.0630800968        1.6926226681       -0.4396913209
 H         -4.2578254224        0.7363442623       -0.5151254267
 H         -4.8354276899        2.1156209445        0.0018010579
 O          6.8813356875       -0.6617507717       -0.4604634342
 H          7.0693146933       -0.9000575574       -1.3900821056
 H          7.0627069292       -1.4313978136        0.0992275686
 O          6.0624161480        1.8918728704        0.1209044705
 H          6.6245244018        1.1113931846       -0.0077488343
 H          5.5878706863        1.9916332310       -0.7253879827
 O         -1.0514376748       -4.0926191433       -1.1245543527
 H         -0.1865563462       -3.6839833016       -0.9550034506
 H         -1.6974455331       -3.5997193592       -0.5943947447
 O          2.8209966302        2.9093544854       -0.0653440795
 H          3.3562126489        2.4799437696       -0.7685953443
 H          3.4473353749        3.3867713785        0.4953671858
 O         -7.4264602333        1.6537467727       -1.2980608991
 H         -7.6497189941        0.7204914672       -1.0347386011
 H         -8.1951991023        1.9906962487       -1.7587423851
 O          4.2592795593        1.6286492153       -1.8687843253
 H          4.1803255579        0.6816273613       -1.6591204271
 H          3.8718328568        1.7542928629       -2.7652993832
 O         -2.4399437287        4.7298984325        0.4511875088
 H         -3.1988962783        5.0231161187        0.9867625522
 H         -2.2913339087        3.8099256278        0.7674868523
 O         -3.6003652363       -2.3277601165       -3.2014187738
 H         -2.8166637985       -2.7923003254       -3.5229719195
 H         -3.3177749366       -1.4100124323       -3.0432776162
 O         -2.9752764147        3.6186961518       -1.9691506353
 H         -2.8465511651        4.2702953194       -1.2545256597
 H         -3.4311161472        2.8708944189       -1.5337294513
 O          0.4453255954       -4.3584894572        2.1158078497
 H         -0.1585111180       -4.1806234883        2.8562968356
 H          1.3341289724       -4.4491537243        2.5279990303
 O          2.4233922582       -1.5790017830        3.9729366287
 H          1.8602138886       -1.6179186267        3.1720088209
 H          3.3346781897       -1.4993928249        3.6497471096
 O          1.2593144266       -5.8135648965       -0.0242067711
 H          0.5599772198       -6.2295702909       -0.5316182455
 H          0.8234344975       -5.4080878090        0.7508769299
 O          2.7318334707        4.5544570238       -3.7903069132
 H          2.2285932709        4.6614861572       -2.9542137418
 H          2.5675131599        5.3370759730       -4.3148402971
 O          4.2430555698       -0.8919509631       -0.9061419679
 H          5.2124327947       -0.8261564022       -0.7783141845
 H          3.9136564304       -1.3378190644       -0.0986703998
 O         -2.2777274028        2.2249015207        1.3920596468
 H         -2.8783015059        1.9300845701        0.6679032982
 H         -2.8274006987        2.2269353374        2.1998268738
 O          0.6163589969       -1.4690632936       -3.9260705703
 H          1.4844994286       -1.8408093658       -3.7196531462
 H         -0.0065138655       -2.2113747925       -3.9846927323
 O         -0.9951238132        4.0361004840        3.4186471777
 H         -1.8666485000        4.4350319781        3.3757278254
 H         -0.4530963568        4.4846054530        2.7565226229
 O         -1.1550566685       -3.5793392340       -3.7179106946
 H         -1.1744764369       -4.3971384591       -4.2145879940
 H         -1.1543248738       -3.8242337676       -2.7580318452
 O         -6.3479005130        0.8677399048        2.7792169732
 H         -6.2933249995       -0.0082314359        2.3160172790
 H         -7.1256131892        0.8364808609        3.3363177936
 O          3.3303394919       -2.5601692180        0.9497594757
 H          2.5464445394       -2.7670345351        0.4007684220
 H          4.0457868087       -3.1300822742        0.5756327119
 O         -0.7985947568        1.3584906884        3.9217095981
 H          0.0903803331        1.1658374981        4.3204586477
 H         -0.8245328593        2.3189865639        3.7417302036
 O          4.4334242077       -0.5463875280       -4.5511440415
 H          4.0706697975        0.3503352008       -4.5809273040
 H          5.2895097700       -0.5094992804       -4.1009800826
 O          2.9455533796       -4.2001982801        3.0319383576
 H          2.9108335784       -3.7112907248        3.8602419791
 H          3.1523500910       -3.5258238644        2.3412460486
 O         -5.4998891973        1.1219256922       -3.2153982341
 H         -6.0593058760        1.4339743392       -2.4833688209
 H         -4.6292401011        0.8805477534       -2.8454591152
 O          1.3347530247        4.5836589745       -1.4730693478
 H          1.9434522903        4.0058788331       -0.9574981720
 H          0.5982260807        3.9872576929       -1.7125317248
 O          1.5646114123        0.8210773937        4.8856290012
 H          1.8869964562       -0.0762998189        4.6656528325
 H          2.1147718181        1.4370179687        4.3806991802
 O          3.0644389436        1.9068914281       -4.2083310599
 H          3.0570899335        2.8816950213       -4.2328371552
 H          2.1252470952        1.6506233089       -4.2395208661
 O         -6.0725555912       -1.4948439366       -2.6500922708
 H         -5.3860138624       -2.0484083556       -3.0573926975
 H         -6.0193011570       -0.6303066330       -3.1022315898
 O          6.7912185405       -1.3118893696       -3.0715713878
 H          7.5147458948       -1.4254424140       -3.6881641785
 H          6.3629598297       -2.2068246006       -2.9859299321
 O          4.8129380644        3.8774531083        1.6030520758
 H          5.4571765160        3.2770719032        1.1921885055
 H          5.2061651907        4.7504378982        1.6018444088
 O          0.7582229221       -1.7209887264        1.8522070240
 H         -0.1100159740       -1.3052287885        2.0326028745
 H          0.6068584302       -2.6891887914        1.7936797585
 O          4.1035708896        0.6447952398        1.4723457045
 H          4.8298552557        1.1215083037        1.0148733814
 H          3.6574933161        1.2945762145        2.0608118080
 O          5.5740918673       -3.6250179218       -2.7650849324
 H          5.5099803446       -3.9028927502       -1.8352501722
 H          4.6695641236       -3.3941871577       -3.0305718596
 O         -2.6345518887       -2.5238537742        0.5414319796
 H         -3.2653492034       -2.9496022842        1.1461132397
 H         -2.1992732815       -1.8350567954        1.0591698292
 O          3.8475186376       -6.0539758431        1.1207711347
 H          3.0131156408       -6.1956313379        0.6530282784
 H          3.6123939980       -5.6466777455        1.9660057341
 O         -2.9618185293       -1.4931570873        3.9859125059
 H         -3.0841005084       -0.8104668961        4.6671708721
 H         -2.5719618620       -1.0245507791        3.2256455895
 O         -0.5126631655        2.6730573019       -1.9833953197
 H         -0.2255706257        2.2525970326       -2.8174393760
 H         -1.4031681554        3.0724483951       -2.1274460890
 O         -2.1350555023        1.4111249777       -5.0265181426
 H         -2.8098831344        2.1392698878       -4.9015849998
 H         -2.4097386369        0.9325440690       -5.8089748767
 O         -4.5024859515        4.5993521615        2.1793909498
 H         -4.3267800535        3.8767242572        2.7997396702
 H         -5.2199910140        4.2687019500        1.6231405536
 O         -0.7307452610       -3.0898969970        4.1995994611
 H         -0.0559394080       -2.5844725695        4.6577050017
 H         -1.5527459645       -2.5707409880        4.2385259628
 O         -4.5686730842       -0.9175631801       -0.5336586902
 H         -3.8227826681       -1.5367173832       -0.4531438995
 H         -5.0879881126       -1.1826552535       -1.3317759417
 O          0.1915706960        5.0201186972        0.9574524695
 H         -0.7518188369        5.1249403277        0.7235329549
 H          0.6696387700        5.1561454386        0.1192078394
 O         -7.9295644858       -0.8506510014       -0.6783029777
 H         -7.4663807907       -1.3028453789       -1.3995990537
 H         -7.5198857387       -1.1543280593        0.1442716664
 O          5.1756621920       -4.1228437462       -0.0933978097
 H          5.9337633267       -3.8449696424        0.4429894395
 H          4.8272711544       -4.9641097440        0.2871306238
 O         -1.4903555481       -0.3337874337        2.0129014360
 H         -1.2271643815        0.3483599231        2.6802630591
 H         -1.5166793879        0.1457358820        1.1620365054
 O         -6.1514062642        2.7606274528        0.7960368247
 H         -6.7623635464        2.5170975838        0.0769565800
 H         -6.3196552922        2.1358408772        1.5234141811
 O         -4.3985568431       -3.2410300239        2.5503253077
 H         -4.4894223438       -4.0970945885        2.9690200415
 H         -3.9598609611       -2.6491570713        3.1967612830
 O         -4.0323653951        3.1013735914       -4.4678602333
 H         -3.7151961283        3.5332027310       -3.6590643216
 H         -4.7273830025        2.4806111061       -4.1812125549
 O          3.1828020965       -2.2394347220       -2.9753083722
 H          3.5452583783       -1.7182655535       -3.7307490101
 H          3.6003734771       -1.7938312375       -2.2055582627
 O         -6.1827488735       -1.4054726187        1.4744786208
 H         -5.5591540311       -1.1849630769        0.7375693080
 H         -5.7673131432       -2.1532156804        1.9282944111
 O          1.5884901588       -3.3101828832       -0.9363565199
 H          2.0534600653       -3.1285927893       -1.7651321024
 H          1.6720952228       -4.2681571050       -0.7549939880
 O          2.7111219995        2.3878129010        2.9190274991
 H          1.8704764991        2.4762361674        2.4259477636
 H          3.2207462972        3.1877469725        2.7525441984
