  117
       -193.22575632
 H          1.3173157563       -0.2714813536        2.1647736061
 C          1.3568054543       -0.4629367565        1.0916886419
 H          2.3635674251       -0.2419453536        0.7330948703
 C          0.3590581517        0.4419877679        0.3799703179
 H          0.3908897413        0.2801430698       -0.6948095761
 H          0.6296852900        1.4728030148        0.5948445638
 O          1.0509230133       -1.8330268777        0.9346571155
 H          1.3699368651       -2.1758320921        0.0672404147
 N         -1.0126401649        0.1824056669        0.8540846869
 H         -1.0299592279        0.0527383839        1.9038009763
 H         -1.4010828631       -0.6747527478        0.3908163024
 H         -1.6086167829        1.0027073659        0.6243566035
 O          5.6629475253       -1.8960934846       -0.7424441220
 H          6.5474791683       -2.2378041151       -0.8804760284
 H          5.7518536313       -1.1122060161       -0.1481925431
 O         -3.5675692061       -2.8155269206        2.5381297257
 H         -3.8114005337       -3.5202630311        3.1401842400
 H         -2.6075499100       -2.9273944910        2.3584213435
 O          2.8944950321        2.1975727429       -1.7825099381
 H          2.2235674961        2.7975923311       -1.4032782679
 H          2.4490500697        1.3318356281       -1.8780886531
 O         -1.9511822529        0.3141324959       -1.7776583091
 H         -2.2820113262       -0.0217931785       -2.6352723306
 H         -2.7398515972        0.3240329098       -1.2117596959
 O         -1.0051660072        2.6309804842       -2.4935938763
 H         -1.2867595023        1.7388063370       -2.1565636187
 H         -1.8144109984        3.1589488554       -2.4499613977
 O         -4.3033976670        0.2887737018       -0.3024004812
 H         -4.6221799415       -0.6079813566       -0.0848926518
 H         -4.4678357200        0.8316337691        0.4873477855
 O         -0.9760185418       -3.2752886546        2.0457576379
 H         -0.3176148364       -2.6350268944        1.7192479209
 H         -0.4896531680       -3.8167664653        2.6737511605
 O          1.6040723263       -0.0910325336       -2.4334853666
 H          1.2019121705        0.3404050213       -3.2312086511
 H          2.3708374822       -0.6025573401       -2.7287700175
 O         -1.9041822815       -2.0965888996       -0.3699470288
 H         -1.7054592957       -2.8668247785        0.1705858912
 H         -1.2894891884       -2.1180625566       -1.1490324621
 O          3.8172818531       -1.7540766645       -2.7299780007
 H          4.2074126711       -2.1470612718       -3.5120335070
 H          4.5148607199       -1.7219851765       -2.0445514779
 O          4.7391532894        2.2892060176        0.2088467713
 H          4.0813460014        2.4532699244        0.9070680684
 H          4.2156629805        2.2500001052       -0.6130874306
 O         -5.2976930772       -2.0876013411        0.5634225425
 H         -6.1407137338       -2.1039717974        1.0182074834
 H         -4.6299701373       -2.4071220526        1.2008803551
 O         -1.1378555332       -0.0199426637        3.5075739905
 H         -0.5533705527       -0.6826944947        3.9466720330
 H         -0.8027129396        0.8507429622        3.8216403157
 O          5.8978486161        0.1255074746        0.9582562843
 H          5.4449165026        0.9663099208        0.6321741461
 H          6.7653668278        0.3991638188        1.2587714694
 O          2.6567436495        0.5860222745        4.1275937355
 H          3.1872748663        0.8139281722        4.8932653058
 H          3.2067558366       -0.0532775078        3.6021980052
 O         -2.3686358808        2.5522410951        0.6142838517
 H         -2.7182991195        2.9138923697       -0.2164843352
 H         -3.1372937806        2.3960867754        1.1928658741
 O          1.9730947582       -3.1459702953       -1.2115060261
 H          1.1460710977       -3.1453759837       -1.7235764424
 H          2.6270267370       -2.7037359888       -1.7804359513
 O          0.8449610542        3.8273906431       -1.0451085103
 H          0.1481327624        3.3701006400       -1.5835607849
 H          1.0099768824        4.6690971863       -1.4719133715
 O         -5.0671086081        1.4432759603       -2.5647579331
 H         -4.8608839432        0.9357911210       -1.7428322024
 H         -6.0201698622        1.4580382587       -2.6563000714
 O          0.7478983914       -1.4993581341        4.5880954233
 H          1.4563030702       -0.8409418036        4.6020352616
 H          1.1106339929       -2.2932654919        4.1567753717
 O          0.0720355629        3.4685704374        1.5664348092
 H         -0.8535010757        3.2427557348        1.3761976269
 H          0.4185634974        3.7893877513        0.7165447417
 O          0.1395290467        2.2145641080        4.0914016743
 H          1.0285867918        1.8630527935        4.2099611924
 H          0.1520365263        2.8115295456        3.3299880127
 O          1.7400949635       -3.5285437672        3.0404220988
 H          1.7702558047       -2.9956509350        2.2281869240
 H          2.6019982559       -3.9411802524        3.1155271826
 O         -0.2101544686       -2.1197604320       -2.3812736003
 H          0.3565131593       -1.3294367704       -2.2783583777
 H         -0.5715855984       -2.0114389827       -3.2898348128
 O          0.4583574373        1.2508007048       -4.3955731909
 H          1.1950884509        1.8369973565       -4.6466652257
 H         -0.1434252994        1.8160362749       -3.8809966836
 O         -3.4240382651       -0.4573584006       -3.8883160594
 H         -3.7687068509       -1.2222474624       -3.3879124581
 H         -4.0676549426        0.2525880006       -3.7662018201
 O         -3.5103487361        3.5113505068       -1.7603182958
 H         -4.0724875820        2.7992280911       -2.1330995205
 H         -3.9860054385        4.3343454859       -1.8759039435
 O         -4.5384384109        1.7129816240        1.9983740966
 H         -5.1679511499        2.2470300301        2.4829694524
 H         -4.2727711879        0.9710196976        2.6161645817
 O          2.5992574272        2.8976323133       -4.3879960538
 H          3.4073027355        3.0805143023       -4.8663604807
 H          2.8484660309        2.7151992613       -3.4579402180
 O          2.6801584280        2.3677133247        1.9634824566
 H          1.8652892291        2.8826845193        1.9547809858
 H          2.6790897330        1.8151612024        2.7582810640
 O         -3.8073152946       -0.2435431390        3.5333876462
 H         -3.8607773078       -1.1471003476        3.1835359953
 H         -2.8549643020       -0.1059465963        3.7045511549
 O         -4.1243594655       -2.2740909700       -2.0213814973
 H         -3.3401141499       -2.2293734790       -1.4461594234
 H         -4.8603505898       -2.4563518331       -1.4319932916
 O          4.1506697281       -1.0610590668        2.7351821634
 H          3.9177844793       -1.8540499387        2.2239939156
 H          4.8035153984       -0.5910442030        2.1890720723
 O         -0.9096239752       -1.2320537938       -4.7770168545
 H         -1.8513312375       -1.0158645665       -4.7473618778
 H         -0.4430159377       -0.3895773035       -4.8647824534
 O          3.7864512582       -3.1468058217        0.9493519859
 H          4.5231527751       -2.8494804728        0.3946751170
 H          3.1073413933       -3.4336708916        0.3253535568
