  189
       -320.72089749
 O          6.8703151296       -2.6413077693        1.5072712877
 H          6.1858570516       -2.1982735992        2.0558927486
 H          7.5568914877       -2.9404104390        2.1038183710
 O         -2.7613525579        0.7685534994        5.4910748006
 H         -2.6082502572        1.0057087346        6.4053223872
 H         -1.9367092393        1.0023119025        4.9876113820
 O          0.4659841484        2.4064834926        1.4025413014
 H          0.5266183997        3.3460039435        1.1194382840
 H         -0.4927406847        2.2480749004        1.4819773504
 O         -3.9758718421        2.1644217462        3.4511218580
 H         -3.6523318490        1.7590442063        4.2710589773
 H         -4.7959602143        1.6952175550        3.2226770643
 O          0.4358564529        1.2314678849       -4.0990031847
 H         -0.3340610393        1.3918096291       -4.6691145848
 H          0.5335002769        0.2601348802       -4.0734681328
 O         -2.9125127615        0.2846065371       -2.7076025822
 H         -2.4866275472        0.6773227094       -3.4933859854
 H         -2.3638184725        0.4516202026       -1.9277184135
 O          5.0977524810       -1.2292005653        3.0173953373
 H          4.7429818559       -0.5677677788        2.3653908027
 H          5.5623372501       -0.7278039708        3.6889748983
 O         -4.0234422393        1.6977867891       -0.4498063281
 H         -4.2181875428        0.7415084917       -0.5252404253
 H         -4.7957897448        2.1207850175       -0.0083139993
 O          6.9209723040       -0.6565863839       -0.4705784390
 H          7.1089512887       -0.8948931424       -1.4001970050
 H          7.1023435251       -1.4262333384        0.0891125005
 O          6.1020528574        1.8970369688        0.1107893997
 H          6.6641610475        1.1165573715       -0.0178638904
 H          5.6275074495        1.9967973181       -0.7355029573
 O         -1.0118001587       -4.0874543663       -1.1346692822
 H         -0.1469189281       -3.6788185710       -0.9651183994
 H         -1.6578079437       -3.5945546382       -0.6045097344
 O          2.8606337073        2.9145184684       -0.0754591290
 H          3.3958496653        2.4851078013       -0.7787103140
 H          3.4869723809        3.3919353074        0.4852520727
 O         -7.3868219945        1.6589108980       -1.3081758090
 H         -7.6100807299        0.7256556984       -1.0448535406
 H         -8.1555607763        1.9958603358       -1.7688572426
 O          4.2989164732        1.6338133435       -1.8788991704
 H          4.2199624808        0.6867915969       -1.6692352960
 H          3.9114698146        1.7594569769       -2.7754141267
 O         -2.4003060551        4.7350622090        0.4410724008
 H         -3.1592585187        5.0282798620        0.9766473834
 H         -2.2516962521        3.8150895086        0.7573717083
 O         -3.5607274313       -2.3225955397       -3.2115334677
 H         -2.7770260823       -2.7871356959       -3.5330865769
 H         -3.2781371635       -1.4048479596       -3.0533923281
 O         -2.9356386805        3.6238600544       -1.9792654691
 H         -2.8069134455        4.2754591480       -1.2646405745
 H         -3.3914783613        2.8760584063       -1.5438443343
 O          0.4849629417       -4.3533246501        2.1056925527
 H         -0.1188737031       -4.1754587014        2.8461814547
 H          1.3737662180       -4.4439889069        2.5178836867
 O          2.4630293802       -1.5738372911        3.9628211214
 H          1.8998510745       -1.6127541303        3.1618934043
 H          3.3743152084       -1.4942283420        3.6396316388
 O          1.2989516807       -5.8083999244       -0.0343218254
 H          0.5996145532       -6.2244052717       -0.5417332421
 H          0.8630718010       -5.4029228830        0.7407617879
 O          2.7714705578        4.5596208202       -3.8004215405
 H          2.2682304150        4.6666499415       -2.9643284638
 H          2.6071502656        5.3422396807       -4.3249548649
 O          4.2826924856       -0.8867865491       -0.9162569222
 H          5.2520696005       -0.8209919956       -0.7884291532
 H          3.9532933836       -1.3326545999       -0.1087854455
 O         -2.2380897477        2.2300655813        1.3819444319
 H         -2.8386637828        1.9352486641        0.6577881654
 H         -2.7877629813        2.2320993978        2.1897115675
 O          0.6559963238       -1.4638988141       -3.9361851822
 H          1.5241366571       -1.8356448443       -3.7297677814
 H          0.0331235320       -2.2062102289       -3.9948073376
 O         -0.9554863036        4.0412643393        3.4085317330
 H         -1.8270108915        4.4401957882        3.3656123856
 H         -0.4134589086        4.4897692574        2.7464072533
 O         -1.1154191407       -3.5741745152       -3.7280253300
 H         -1.1348389068       -4.3919736476       -4.2247025731
 H         -1.1146873460       -3.8190690211       -2.7681465894
 O         -6.3082623964        0.8729041192        2.7691016012
 H         -6.2536868890       -0.0030671221        2.3059019594
 H         -7.0859749845        0.8416450789        3.3262023585
 O          3.3699765111       -2.5550046149        0.9396443110
 H          2.5860816476       -2.7618699084        0.3906533195
 H          4.0854237468       -3.1249176064        0.5655175897
 O         -0.7589572694        1.3636548472        3.9115940965
 H          0.1300177198        1.1710016788        4.3103431008
 H         -0.7848953690        2.3241506139        3.7316147223
 O          4.4730611018       -0.5412231531       -4.5612585824
 H          4.1103067329        0.3554994740       -4.5910418416
 H          5.3291465671       -0.5043349097       -4.1110946745
 O          2.9851904425       -4.1950334910        3.0218229568
 H          2.9504706453       -3.7061259912        3.8501264846
 H          3.1919871304       -3.5206591517        2.3311307261
 O         -5.4602511769        1.1270898778       -3.2255129266
 H         -6.0196677923        1.4391384895       -2.4934835962
 H         -4.5896021794        0.8857119665       -2.8555738495
 O          1.3743902703        4.5888227676       -1.4831842377
 H          1.9830894667        4.0110426917       -0.9676131203
 H          0.6378634097        3.9924215537       -1.7226465876
 O          1.6042486318        0.8262416134        4.8755133902
 H          1.9266336391       -0.0711354973        4.6555372465
 H          2.1544089751        1.4421821186        4.3705836265
 O          3.1040759930        1.9120555248       -4.2184456396
 H          3.0967269838        2.8868590075       -4.2429517321
 H          2.1648842511        1.6557874346       -4.2496354424
 O         -6.0329175058       -1.4896794543       -2.6602070273
 H         -5.3463758549       -2.0432438104       -3.0675074078
 H         -5.9796630776       -0.6251422486       -3.1123462951
 O          6.8308551673       -1.3067249080       -3.0816860965
 H          7.5543824397       -1.4202779396       -3.6982788174
 H          6.4025965051       -2.2016600375       -2.9960446506
 O          4.8525749156        3.8826169815        1.5929368370
 H          5.4968132942        3.2822358445        1.1820733133
 H          5.2458019971        4.7556016724        1.5917291702
 O          0.7978602329       -1.7158242184        1.8420917569
 H         -0.0703785648       -1.3000643276        2.0224875872
 H          0.6464957581       -2.6840241737        1.7835644983
 O          4.1432078212        0.6499594795        1.4622304805
 H          4.8694921049        1.1266724894        1.0047582095
 H          3.6971302982        1.2997403806        2.0506965173
 O          5.6137286321       -3.6198531979       -2.7751996759
 H          5.5496171167       -3.8977279948       -1.8453650211
 H          4.7092009911       -3.3890224599       -3.0406865730
 O         -2.5949141931       -2.5186891751        0.5313168612
 H         -3.2257114364       -2.9444376369        1.1359980527
 H         -2.1596356352       -1.8298922744        1.0490546522
 O          3.8871555983       -6.0488108438        1.1106559508
 H          3.0527526961       -6.1904663225        0.6429131473
 H          3.6520309852       -5.6415127923        1.9558904541
 O         -2.9221807966       -1.4879926052        3.9757969969
 H         -3.0444627619       -0.8053024913        4.6570552859
 H         -2.5323241735       -1.0193863500        3.2155301667
 O         -0.4730257106        2.6782213116       -1.9935101518
 H         -0.1859332033        2.2577610901       -2.8275541136
 H         -1.3635305995        3.0776123596       -2.1375609047
 O         -2.0954178634        1.4162891306       -5.0366326297
 H         -2.7702454190        2.1444339582       -4.9116995011
 H         -2.3701009669        0.9377082761       -5.8190892750
 O         -4.4628480442        4.6045159528        2.1692756456
 H         -4.2871421662        3.8818881306        2.7896242958
 H         -5.1803530253        4.2738657788        1.6130253125
 O         -0.6911077812       -3.0847323337        4.1894839279
 H         -0.0163020049       -2.5793079635        4.6475894166
 H         -1.5131083916       -2.5655763837        4.2284104254
 O         -4.5290351694       -0.9123987632       -0.5437736865
 H         -3.7831448378       -1.5315528961       -0.4632589051
 H         -5.0483501389       -1.1774908065       -1.3418908478
 O          0.2312080712        5.0252824408        0.9473373039
 H         -0.7121813549        5.1301040594        0.7134178159
 H          0.7092760909        5.1613091669        0.1090927690
 O         -7.8899261898       -0.8454865921       -0.6884179577
 H         -7.4267425472       -1.2976809183       -1.4097139521
 H         -7.4802474893       -1.1491636156        0.1341565931
 O          5.2152990020       -4.1176789658       -0.1035128562
 H          5.9734000508       -3.8398048935        0.4328743323
 H          4.8669080040       -4.9589448682        0.2770155343
 O         -1.4507179822       -0.3286230829        2.0027861508
 H         -1.1875268456        0.3535241965        2.6701476981
 H         -1.4770418191        0.1509001783        1.1519213167
 O         -6.1117681698        2.7657914527        0.7859216774
 H         -6.7227253828        2.5222616113        0.0668415142
 H         -6.2800171788        2.1410049479        1.5132989514
 O         -4.3589189476       -3.2358653435        2.5402099615
 H         -4.4497844379       -4.0919298110        2.9589046478
 H         -3.9202231154       -2.6439924580        3.1866458635
 O         -3.9927275411        3.1065375526       -4.4779747838
 H         -3.6755583103        3.5383666433       -3.6691789638
 H         -4.6877450697        2.4857751378       -4.1913271377
 O          3.2224391324       -2.2342701552       -2.9854230919
 H          3.5848953731       -1.7131010458       -3.7408636441
 H          3.6400104657       -1.7886667213       -2.2156730696
 O         -6.1431107756       -1.4003081464        1.4643633966
 H         -5.5195160040       -1.1797986296        0.7274541674
 H         -5.7276750924       -2.1480511233        1.9181791355
 O          1.6281273756       -3.3050181950       -0.9464714707
 H          2.0930972293       -3.1234281217       -1.7752469592
 H          1.7117324300       -4.2629923081       -0.7651089594
 O          2.7507590890        2.3929769432        2.9089121113
 H          1.9101136837        2.4814001995        2.4158324315
 H          3.2603833288        3.1929109240        2.7424288293
 O         -1.2326193229        0.5064448688       -0.5633409875
 H         -1.0105952467        1.4164243112       -0.8350666552
 H         -0.3299575074        0.1033124899       -0.5755655751
 O          1.3497669741        0.0824108969       -0.3246715580
 H          1.5988505057        0.9666820374       -0.0288972255
 H          1.4946177219       -0.5087560245        0.4236083988
 O          4.9141181842        1.2299171711        4.6001367977
 H          4.2611716234        1.0419170305        5.2777553635
 H          4.4446413374        1.7122477974        3.9102559390
