  384
       -651.78072686
 O          3.6248515550       -0.5061164033       -0.0450854658
 H          4.3674442211       -0.9858405590       -0.4327132425
 H          3.7724928515        0.4233656718       -0.2660316242
 O          0.4824484116        3.7223896238        2.1052778654
 H         -0.3177689863        3.7894475695        2.6607906081
 H          0.7349307607        4.6389419242        1.9003166067
 O          1.2620306534       -2.6192452803        2.1352324677
 H          1.9982763705       -3.2498634020        2.0547033461
 H          1.3049125074       -2.2769421358        3.0387556606
 O          7.8818284541        2.5486179076        1.2398258220
 H          8.3685562758        2.0397136133        1.9075486299
 H          7.4808421326        3.3125118746        1.7253567483
 O          4.1960296973       -3.4445808267       -0.3690771211
 H          4.1703523477       -4.2560685502       -0.9059592519
 H          4.8411173919       -2.8389789235       -0.7646082337
 O         -3.1346485377       -1.1893013550        6.5469320615
 H         -2.3739325497       -1.3596763933        7.1250077193
 H         -2.9876318509       -1.7951008021        5.7915121919
 O         -3.7661618377        2.4329798465        3.9073195667
 H         -3.2130815319        1.8421848093        4.4627859461
 H         -4.5787635432        2.5976668670        4.4366962804
 O          1.9072687914        1.8926625278        0.1476763298
 H          2.5359990621        2.0436787522        0.8780797290
 H          1.7883317035        2.7716814975       -0.2452660519
 O         -0.6587205632       -0.5360897522        3.8200341138
 H         -0.1172207159       -1.2057296442        4.2557524718
 H         -0.0287048626        0.0808476605        3.3984362355
 O          2.8778048700        1.2197414962       -5.2463344778
 H          2.0072606842        1.4277685490       -5.6589734364
 H          2.7039845494        1.2293606760       -4.2835670735
 O          4.4690636387       -0.4195590740        6.0573177984
 H          5.0194248418        0.1969337068        5.5561234634
 H          4.3660116723       -1.1931575486        5.4799080360
 O          5.8637790424       -1.5709118653       -1.3762861091
 H          6.5524737055       -2.2400840316       -1.5212194611
 H          6.3231376020       -0.7178614256       -1.2729005117
 O          5.7811649261        0.8435701003        1.6523898436
 H          6.5452768463        1.3030331138        1.2633485222
 H          5.7942624270       -0.0800619259        1.3593318305
 O         -0.5874929753       -1.7537913614        7.3581547428
 H          0.2145043122       -1.2218597503        7.2886659482
 H         -0.4329592673       -2.5824037328        6.8888247840
 O         -2.7121221976       -2.6440520266        4.3359813941
 H         -3.5372802729       -2.9753441641        3.9388473741
 H         -1.9980612042       -3.1600982115        3.9189402176
 O         -0.8910071188       -4.2204983015        3.1101436853
 H         -1.4885649731       -4.7561286222        2.5500554315
 H         -0.3496694267       -3.7037343995        2.4859778061
 O         -0.7844896155        3.0779094319       -0.1132676012
 H         -0.1509456109        3.3548599306        0.5865970448
 H         -1.3154215008        2.4142455224        0.3436920955
 O         -5.8620821358       -3.5510020005       -0.0936402893
 H         -6.1916928250       -4.3799183711        0.2731148066
 H         -4.9249321305       -3.7189156578       -0.3331534371
 O         -3.3586948625       -2.2796104171        0.9996956201
 H         -2.5310469418       -2.7400305994        0.7780727762
 H         -3.7229540656       -1.9697463153        0.1490835583
 O         -7.4059968255        0.8162061375       -0.3231964346
 H         -7.0615659857        0.4599786439       -1.1770577450
 H         -7.0008205216        1.6964509785       -0.2659481539
 O         -4.8699379457       -3.4342392993        2.8991665789
 H         -4.4393923675       -3.0570897967        2.0978049875
 H         -5.6895466349       -2.9184175969        3.0561822517
 O         -3.4814315705        2.5094089278       -1.4675377925
 H         -3.3610800198        2.9974974082       -0.6301135727
 H         -3.2175312172        1.5856921392       -1.2877935014
 O          7.3438603914        2.3395108385       -3.2174660310
 H          8.2711448053        2.1066634421       -3.3645406175
 H          6.8595000736        2.0677975078       -4.0136069805
 O         -5.1402964411        1.4345239054        1.7819515664
 H         -5.1584529601        0.5048433032        1.5050912647
 H         -4.5956401175        1.5043990392        2.5894079936
 O         -1.7480463153       -2.8697555534       -2.3554982790
 H         -2.0494243221       -2.5895249882       -3.2282174590
 H         -0.8110119611       -3.0635576749       -2.4444168248
 O         -0.9284944800       -3.5009484095        0.4050515470
 H         -1.0491658038       -4.3891133595        0.0387240655
 H         -0.0684114999       -3.2137043946        0.0714202254
 O          4.7250334242        0.2932745217       -3.0897269050
 H          4.6264288050        0.8842088886       -2.3215954066
 H          4.7962425846        0.8526806759       -3.8725173250
 O          4.4417712243        4.7171451437        0.5437386980
 H          3.6086304423        4.6812044182        0.0236346872
 H          5.1633418347        4.5504119501       -0.0854475967
 O          0.1796581297        3.0784821632       -2.6281020342
 H         -0.1746843734        3.1548211321       -1.7238725956
 H         -0.3154356465        2.3559589481       -3.0636946533
 O          3.4734332610       -2.0789831643       -2.8785314070
 H          4.1660229913       -2.7492444344       -3.0350594411
 H          3.9477056451       -1.2384660499       -2.7474827832
 O          4.5077049898        1.9407477802       -0.9520308823
 H          5.4371447979        1.7471466231       -0.7512799643
 H          4.4846352853        2.7548591893       -1.4913149498
 O         -6.3867203953       -0.1827146749       -2.5349257785
 H         -7.1864487287       -0.6674050248       -2.8270184933
 H         -6.1558167812        0.4716007937       -3.2117963918
 O         -3.4155675920       -4.4395329911       -0.7856061374
 H         -2.8205680550       -3.8946201411       -1.3365803565
 H         -3.8230557248       -5.1049222702       -1.3651144550
 O         -2.1501846099        6.2382073682        1.9070436791
 H         -2.0358779806        5.5218970517        2.5619912482
 H         -3.0845990766        6.4769089517        1.9367202443
 O          3.5516370679       -4.1133695966        2.1203253825
 H          3.8591143739       -3.5079595350        2.8246116834
 H          3.8395539932       -3.7387673072        1.2596600505
 O          6.7354736749       -1.9259748277        4.0641852719
 H          5.8794147737       -2.3230582413        4.2792473775
 H          6.6833031767       -1.0117369253        4.3704577697
 O          6.2794585390       -1.8418642635        1.4186867781
 H          6.4558855362       -1.8798575450        2.3811937491
 H          6.2256114711       -2.7699545533        1.1403791128
 O          3.6801756546       -5.8710777539       -1.4508550846
 H          3.0238739423       -5.9973005366       -0.7371535054
 H          3.2305445071       -6.1820724201       -2.2697061606
 O          1.5518880868       -3.2926429124       -0.7296688810
 H          1.3493417371       -3.4288256128       -1.6790307721
 H          2.4982361586       -3.0651670943       -0.6803842248
 O         -6.0689888989        2.3321115720        5.1794613483
 H         -6.6897218031        2.4751240242        4.4465497411
 H         -5.9332614275        1.3697659616        5.2226695676
 O         -4.9038597000        6.0189472366        1.2720948416
 H         -5.8078045627        5.7416410163        1.4723322566
 H         -4.8919761446        6.1499151327        0.3026348269
 O         -4.3439048505       -1.6253859250       -1.4865130535
 H         -5.1673946969       -1.1608704769       -1.7163803433
 H         -3.6428717789       -1.0027563047       -1.7399253532
 O          8.5066440878       -0.5341547028        0.7301839009
 H          8.7918379542       -0.1522154062        1.5696629342
 H          7.7025087198       -1.0652280863        0.9403418082
 O          0.8608455679       -3.7055850613       -3.2768508568
 H          1.6655360800       -3.8777800616       -3.8016540433
 H          0.3702737344       -4.5630827893       -3.2438443003
 O         -4.5745458354       -3.3400687221       -3.5236670294
 H         -5.5094955241       -3.5885783360       -3.4071210413
 H         -4.3759011349       -2.7887999568       -2.7302024788
 O         -2.0240806792        1.7039934212        1.8894119080
 H         -2.4141325709        1.0273217242        2.4754212432
 H         -2.5905671723        2.4888055843        1.9361988939
 O          0.4444599767        1.9778187753       -6.0299654105
 H          0.5640450216        2.9194629189       -5.8210537034
 H         -0.0523215615        1.6079088736       -5.2695887473
 O         -9.6863208999        1.6062699066        2.0418294829
 H        -10.2387998507        1.7027003555        2.8185813445
 H         -8.7629278069        1.8745371699        2.3208209361
 O          1.4385056164       -2.0924278165        4.8223724636
 H          1.0088328380       -2.8530932466        5.2465427543
 H          1.5653847671       -1.3877065881        5.5114294029
 O          3.0326195337        5.9642622475        2.6912312743
 H          2.1912927495        6.2670180048        2.3221067610
 H          3.5767125850        5.7150743218        1.9334471974
 O          3.1740924203        3.7684696086        4.1982450450
 H          3.2666406202        3.1938252345        3.4000642323
 H          3.0372567957        4.6623386726        3.8157913375
 O         -5.9542281408       -1.0136893745        0.9681258904
 H         -6.6068625129       -0.4558466876        0.5000863877
 H         -5.9459172980       -1.8701915477        0.5021002802
 O          0.6121627324        6.3406821509        1.3332879895
 H         -0.2954743889        6.5552250308        1.5919092304
 H          0.6527047611        6.4550571968        0.3743720137
 O         -3.7287191782        3.5894701180        0.9934740680
 H         -4.4192230102        2.9346142697        1.1892598551
 H         -4.1056337907        4.4673318564        1.1920454458
 O         -0.4386974024       -5.9702001185       -3.0153903171
 H         -1.3470743564       -5.8697405643       -3.3616157081
 H         -0.5505634884       -6.1293280980       -2.0619890850
 O         -2.8837413902        1.7533727478       -5.8672078538
 H         -2.8960632177        2.2870572183       -6.6613860502
 H         -2.3270240579        0.9639942831       -6.0810837971
 O         -0.6764032190        0.8819663052       -3.8389821496
 H         -0.2534063027        0.0105031762       -3.9541262841
 H         -1.5966013829        0.6799871769       -3.5607395855
 O          0.2192106105       -1.4970975861       -4.8875598335
 H          1.1415370376       -1.4678161557       -5.2212511646
 H          0.2077031163       -2.2543187881       -4.2837013834
 O         -7.5014045923        2.7635562393       -3.1116059146
 H         -8.4528741207        2.7862045234       -2.8482007062
 H         -7.3588177270        3.4595514918       -3.7548753182
 O         -5.0921555404        4.3398884494       -3.9287023321
 H         -5.1687283490        4.9302041681       -3.1643160732
 H         -4.1330861471        4.1891106603       -4.0194383881
 O         -2.1274802172        0.9714305649        5.4132622076
 H         -1.5296963004        0.4587997229        4.8187128012
 H         -2.5700524119        0.2804043110        5.9576299308
 O          7.3214987851       -3.8568558010       -1.6064444504
 H          7.0546775539       -4.7177674480       -1.2528030939
 H          8.1442393807       -3.6037317018       -1.1363056159
 O          1.1961391494        1.1816520721        2.9698561987
 H          1.3039756295        1.5046564330        3.8890316722
 H          1.0161180343        1.9802404651        2.4486797358
 O          0.2467118136        6.1406632867       -1.4956479490
 H          0.1262484408        6.2112445205       -2.4524583927
 H         -0.6512677075        5.8719663686       -1.1881736345
 O         -3.3051237558       -0.4193315426        2.9114045471
 H         -3.4211632588       -0.9982680981        2.1264200332
 H         -2.6750736561       -0.9167216364        3.4622774856
 O         -2.8130603255       -1.8975907403       -4.8227348536
 H         -2.6945701726       -1.7997170082       -5.7679184384
 H         -3.5775057288       -2.4784959757       -4.6495360549
 O          4.2475435539        4.0525469736       -2.6185025274
 H          5.0174651227        4.6195241115       -2.5662831761
 H          4.0397670511        3.9451756166       -3.5889395226
 O          1.4054494251        2.1802761744        5.4334216509
 H          2.0562441107        2.8544361152        5.1597268359
 H          0.5952588701        2.6514126443        5.7005000438
 O          5.4893067985       -3.6515842300       -3.7073134211
 H          6.1269360907       -3.9296507592       -3.0352710120
 H          5.9132721034       -2.8778216254       -4.1340118613
 O         -5.1072729796        1.5848644051       -4.2449579542
 H         -4.5250792120        1.6078429941       -5.0189259956
 H         -5.3040778864        2.5151109696       -4.0368271004
 O         -8.3875541499       -2.3126305487       -0.1668945242
 H         -8.7779979868       -1.8452998357        0.6066530044
 H         -8.5135779599       -3.2469343706       -0.0081836743
 O         -0.9888626089        3.2351249719        6.1220291718
 H         -1.2206912642        3.4618781913        7.0218901292
 H         -1.4433084283        2.3781939620        5.9190880375
 O          3.7490939075        2.5352493347        1.9526072635
 H          4.4213539575        1.8319967027        1.8792839059
 H          4.0761555942        3.2986155279        1.4361940060
 O          1.1117619220       -0.9327332828       -2.3246687457
 H          1.8376714765       -1.5304575081       -2.5531520026
 H          1.4629334511       -0.0342542321       -2.4882100236
 O         -7.3499396556        2.4698385274        2.7438448557
 H         -6.5946511719        1.9628599453        2.3576580917
 H         -7.3154326284        3.3285854591        2.2712525594
 O         -6.9266970294       -1.7289357890        3.2780373656
 H         -6.5890483219       -1.3825908471        2.4115504174
 H         -6.4893243426       -1.1902122131        3.9606366903
 O          6.6418332704        3.9285964960       -1.0297135751
 H          7.0581879256        3.4096863799       -0.3321143970
 H          6.8662501948        3.4770789569       -1.8594849934
 O          1.8190779631       -0.2347350027        6.6096381815
 H          2.7951437164       -0.2575168245        6.6382945721
 H          1.6067549912        0.6472856873        6.2525097176
 O         -2.6234807054       -5.6495072057        1.5407802214
 H         -3.4178244227       -5.9500769406        2.0010437330
 H         -2.9367374466       -5.1337291345        0.7690462002
 O         -3.1042950846        0.1668173975       -3.1315073673
 H         -3.0508743176       -0.5698939007       -3.7690895399
 H         -3.8618375283        0.7130095646       -3.4138366832
 O          6.1947268587       -6.2512792255       -0.7464771667
 H          5.2599883907       -6.1880487524       -1.0603164448
 H          6.5130203085       -7.1187005847       -0.9934013130
 O          1.8329462546       -5.6234842546        0.5103819963
 H          1.6545567224       -4.7495906498        0.0783739114
 H          2.3326063669       -5.4131921380        1.3062932899
 O         -0.0575549403       -4.1397993728        5.6879162935
 H          0.0427695917       -5.0115666426        6.0683900776
 H         -0.4152878860       -4.2615364738        4.7833994657
 O         -5.2227962675       -0.2768777041        4.8205586018
 H         -4.7772375708       -0.6108386664        5.6073026743
 H         -4.5420839351       -0.2939957743        4.1109797968
 O          3.9997039714       -2.3294297171        4.0839363000
 H          3.1088462320       -2.4479255036        4.4660000359
 H          3.8715235927       -1.5380989199        3.4838665200
 O          3.4629105343       -0.3006868486        2.6009419989
 H          2.6599930958        0.2278417452        2.7480528406
 H          3.5337539019       -0.4429233465        1.6344275383
 O         -2.4906399629        3.5208622890       -3.7687316317
 H         -2.4933027432        2.8210707802       -4.4427973579
 H         -2.7640671370        3.1078660722       -2.9244957006
 O         -7.0004064870       -3.8806656951       -2.5382368011
 H         -6.7093347387       -3.5966853057       -1.6438655311
 H         -7.6680029507       -3.2461762140       -2.8177930201
 O          6.2316866877       -4.6331445435        1.4659278243
 H          6.2866944017       -5.2584778920        0.7266284936
 H          5.3722563389       -4.7833373749        1.8817938516
 O          2.1869230419        4.3922827765       -0.8995164722
 H          2.7378428034        4.2842496133       -1.6925863765
 H          1.4745014820        5.0227007622       -1.1342494111
 O         -1.1456994687        5.8871823308       -3.9043092242
 H         -1.5805241613        5.0177918475       -3.7877351632
 H         -1.8473261493        6.5378391220       -3.8939588040
 O          9.7073691120        3.0842683904       -0.6862228198
 H          9.1020282757        2.8351464596        0.0411588235
 H          9.4603729565        3.9728334675       -0.9487676223
 O          5.6706355763        3.4582779976        4.8635143625
 H          5.8667195871        3.8936285962        5.6921931368
 H          4.6945961202        3.5861281044        4.6913987598
 O          2.2403606100        1.4663121998       -2.6194153936
 H          2.6448312838        1.5603127387       -1.7467979502
 H          1.5214272893        2.1354036069       -2.6409224572
 O          6.9754787919        0.8854742466       -0.9492761770
 H          7.2491539492        1.2466247866       -1.8090006794
 H          7.7537701590        0.5054779695       -0.5044990634
 O          6.6113023015        4.4673057419        2.4936733549
 H          5.8462591494        4.7749440493        1.9960859815
 H          6.2902628453        4.1611713078        3.3602836773
 O          3.6121730700        3.8165088841       -5.1162221691
 H          3.4875253526        2.8627187362       -5.2922805765
 H          2.7185856932        4.1965200609       -5.1469644891
 O         -4.7420890870        5.5192309417       -1.3980067477
 H         -5.1634829696        4.6673719115       -1.1825773429
 H         -3.7812678992        5.3937928199       -1.2734211160
 O          6.0517479321        1.1936768130       -5.3563569941
 H          6.3369151687        0.2643533695       -5.2568313569
 H          5.4417358236        1.2370183904       -6.0932388563
 O         -1.7454149810        4.1794134115        3.6375040506
 H         -2.5474511938        3.6120987020        3.6537103117
 H         -1.3895527312        4.1160456119        4.5353690687
 O         -8.6771410295       -1.5250668696       -2.6949895317
 H         -8.6088800974       -1.7829805695       -1.7470609279
 H         -9.3838239226       -0.8726713111       -2.7050630460
 O          6.5998168409       -1.2612088674       -4.2826336699
 H          5.9497170494       -0.8521390350       -3.6780126743
 H          7.4217437602       -1.2756503446       -3.7611521371
 O          2.2503059111       -6.6235485709       -3.5598706442
 H          1.2913934348       -6.5812474941       -3.4253702323
 H          2.4605250599       -5.9902787143       -4.2580276611
 O         -3.0419458563       -5.5947457018       -3.6449958123
 H         -3.5143078641       -4.7399157134       -3.6631786611
 H         -3.6746268348       -6.2257971092       -3.2913520794
 O          3.0193825915       -4.2719733332       -4.8872751545
 H          2.9574232869       -3.5329814778       -5.5036609029
 H          3.9174325240       -4.2345187394       -4.5217697966
 O         -9.3253542977       -1.1546698442        2.0232069126
 H         -8.5981514398       -1.3740344669        2.6322998205
 H         -9.3875358429       -0.1866512660        1.9890524627
 O          8.6040115472       -1.0431587205       -2.4663925971
 H          9.1425252935       -1.7287338988       -2.0652800343
 H          9.1508064240       -0.2474347944       -2.5541975101
 O         -0.6936092978       -6.1921311887       -0.3139064364
 H          0.1945774123       -6.2126407589        0.0773256247
 H         -1.3265856498       -6.3971985773        0.3867399258
 O          8.7434430062        0.8233658530        3.1947712699
 H          7.8834260095        0.8119265227        3.6741530067
 H          9.4360162171        0.7336546982        3.8478610475
 O         -1.2885875000       -0.2028705238       -6.6990881663
 H         -0.6056595041        0.3942412062       -7.0221928548
 H         -0.8349394368       -0.7518388337       -6.0269861710
 O          8.6170031704       -3.5878498523        2.3921340896
 H          7.8382309453       -4.1066294175        2.1385109561
 H          8.3321451457       -3.0463280491        3.1339320136
 O          9.9019568504        1.3951921526       -2.7347960745
 H          9.8808374522        1.9636566878       -1.9299404550
 H         10.7923838339        1.4489158047       -3.0811700098
 O         -6.0388054350        3.0929561336       -0.9842977464
 H         -6.5896479711        3.0086972415       -1.8054171642
 H         -5.1724569201        2.6975934724       -1.2206840076
 O          0.9469920225        4.4078582116       -4.8438365799
 H          0.3525865941        5.1639138068       -4.8999887376
 H          0.7312720047        4.0016594012       -3.9811143559
 O          9.4166917323       -2.9204688496       -0.1943606628
 H          9.3660670119       -3.3703903966        0.6633623943
 H          9.2403549987       -1.9894612249        0.0361911845
 O          6.2614399633        0.8747995889        4.2562979122
 H          6.1019191177        1.7967291481        4.5318645561
 H          5.8951203577        0.8148675966        3.3405654352
 O         -9.9802034027        0.3554183234       -0.9596764621
 H        -10.4729012701        0.0689338332       -0.1902018220
 H         -9.0637538327        0.5152335193       -0.6459515330
 O         -9.9603838491        2.8081514754       -2.1522985687
 H         -9.8945107157        3.3104481082       -1.3254813798
 H        -10.1176061222        1.8886698259       -1.8717220536
 O          2.8333593764       -1.4866972306       -5.4319218760
 H          3.0805448388       -1.6960699478       -4.5050465090
 H          2.9839011976       -0.5287291791       -5.5230643218
 O         -5.0614177216       -6.0191627317        2.8162821757
 H         -5.2748710467       -6.3397140944        3.6918885232
 H         -5.0250361476       -5.0228421781        2.8764787609
 O         -7.2353502325        4.5048881894        1.0177835930
 H         -6.7781779580        4.0327753988        0.2968402037
 H         -8.1707659814        4.5022616271        0.7638800107
 O         -9.8469327040        3.8031916870        0.4515109908
 H         -9.8388057434        2.9458330620        0.9319738433
 H        -10.6675629887        4.2439154832        0.6720087163
 O         -5.2785045215       -6.1047945009       -1.9421783356
 H         -5.9117865952       -5.5105369366       -2.3659177845
 H         -5.6706679635       -6.3150513996       -1.0828982254
 O         -2.1193969284        5.3045874941       -0.6332677774
 H         -1.7494848591        4.4061700917       -0.4858351340
 H         -2.1813209879        5.6967221968        0.2605530199
 O         -6.5420575092       -6.1832564774        0.5862361587
 H         -5.9883875713       -6.2377662229        1.3927056064
 H         -7.2731071899       -6.7890535883        0.7043366973
 O         -0.0829302180       -0.1263255527       -0.0722415069
 H          0.5841927679        0.5154471813        0.1981382718
 H          0.3571131466       -0.6834782670       -0.7309217246
 O         -2.6097799239        0.3547516337       -0.4341957699
 H         -2.5756511907        0.7301491959        0.4594439753
 H         -1.6708358002        0.0775486970       -0.5468392561
 O         -1.1040388105       -3.8573487327       -6.1526479610
 H         -1.5426976114       -4.2908738901       -5.4172327786
 H         -0.6587116192       -3.0790928576       -5.7957573159
