  271
       -458.52383439
 H          0.7277711567        0.6919266805       -0.1253865404
 O          0.9052977647       -2.1040421654        3.2740888092
 H          0.2779099937       -1.4665840687        2.8778412189
 H          0.6496353521       -2.2260539584        4.1899553167
 O         -4.2589450443        0.9039745458       -5.4562680880
 H         -3.6435166364        1.0845742868       -4.7020106442
 H         -4.9473294186        1.5664797532       -5.4091776144
 O          3.6836571360       -3.5386520380        3.5893265910
 H          3.9480807388       -2.9186848426        4.2932599931
 H          3.2896396710       -2.9612196606        2.8992342617
 O          0.0281081239       -0.5977674499       -2.0146507568
 H          0.0871599323        0.0260165743       -2.7547111888
 H         -0.0358638696       -1.4788250320       -2.4248292581
 O         -2.1403733466        2.4512370162       -1.2720279113
 H         -2.9549687887        2.9567401492       -1.1172929792
 H         -2.2931398055        2.0200953544       -2.1481107513
 O          1.1363523240       -0.0699538646        0.3811700892
 H          2.0669429556       -0.2608981211       -0.1030369694
 H          0.5904179889       -0.9296187628        0.3110747074
 O         -2.1692672969       -2.6066744348       -0.9146260870
 H         -2.2480852194       -3.5799889838       -0.9448096912
 H         -2.2713287669       -2.2712939428       -1.8308470573
 O          3.3242247273       -0.2996345535       -0.7325151803
 H          3.8996673493       -1.0431304481       -0.4401894144
 H          3.6574391309        0.5297598980       -0.3555095628
 O         -0.5140225163        4.7054968700        6.0945048500
 H         -0.4518208599        3.8394730851        6.5531521303
 H         -0.8809213210        5.3367698856        6.7126044326
 O          0.0985143912       -2.3913560475        0.2856061029
 H         -0.2417486811       -2.7908691684        1.1138480433
 H         -0.7078788503       -2.3977999914       -0.2957571605
 O         -4.2443136585       -0.4699248716       -1.2714871913
 H         -4.4637739833       -1.3962107577       -1.4644299188
 H         -3.3231694244       -0.4493253462       -0.9592191750
 O         -3.1335391761       -4.3163368167       -3.6382613525
 H         -2.3086740399       -4.8051378177       -3.5724881758
 H         -3.2250578688       -4.0403844608       -4.5619994642
 O         -2.2106646559       -5.2567442898       -0.6893660650
 H         -1.6061411936       -5.5796132343        0.0105456320
 H         -3.1169021496       -5.4272346644       -0.4092554543
 O          0.1266741822        1.1189872141       -4.1372493282
 H          0.4821528941        1.9887105607       -3.8864097801
 H          0.4877094084        0.9300227819       -5.0240870827
 O          1.0961785015        2.3881366141        1.9447037000
 H          1.1651726160        2.8855948197        2.7776080974
 H          0.1413418378        2.4004636707        1.7240344686
 O          3.3601131683        2.0945987958        0.4554308799
 H          3.4634193074        2.9303530873       -0.0128239158
 H          2.5647022578        2.1880076490        1.0095071385
 O         -2.0091753739        4.9580360715        0.2015519417
 H         -1.5889101847        5.0514256334       -0.6650900296
 H         -1.4881468170        5.5254677512        0.8229966367
 O          4.9642180194       -1.1613682535       -4.1890527367
 H          4.9152257467       -0.4441281408       -4.8296614973
 H          4.0601084798       -1.1581915385       -3.7693287513
 O         -0.4432101501       -6.1498754971        1.1455172825
 H          0.1811278703       -5.5685406369        1.6200442032
 H         -1.1045465349       -6.4175425829        1.7915300407
 O         -1.7467671830        0.0570292393       -0.1967529876
 H         -1.1432099878       -0.2551197918       -0.9107038375
 H         -1.9306005047        0.9913964173       -0.4060606477
 O          2.5414458159       -1.0806826640       -3.2458842155
 H          2.4491373488       -0.1741952335       -2.8886789371
 H          2.4125725728       -1.6914790942       -2.4945173989
 O         -3.4672142877        0.9664199592        1.8969936381
 H         -4.1584378505        1.2403310821        1.2688499383
 H         -2.7017204847        1.5604393250        1.7307825509
 O          5.0313246197        2.2937508306       -2.0729374202
 H          5.2515140364        2.5948248503       -2.9680433567
 H          5.4718114852        1.4173837144       -1.9685869713
 O          4.2086521275       -1.3237703458        5.0530977422
 H          4.6931444353       -0.9957165945        4.2751583112
 H          3.3976003894       -0.8141188934        5.1151002506
 O          2.9515615492       -1.9751176060        1.5017748692
 H          2.7387039633       -1.1383630164        1.9646313955
 H          2.1149378477       -2.3313191344        1.1944173540
 O          5.2035508010       -2.1164180099       -0.3170868660
 H          5.1683124126       -2.7150814542       -1.0968665649
 H          5.3604437466       -2.6974221742        0.4435973079
 O         -0.0444436833       -2.9522124291       -3.2857606735
 H          0.5272804502       -2.9651086037       -4.0565059570
 H         -0.2568738812       -3.8878737638       -3.0842879633
 O          3.5305937930        1.1410963185       -5.2171046768
 H          3.0548462335        1.2409539188       -4.3716511105
 H          2.8439020866        1.1004902246       -5.8944872410
 O          3.2050684670        4.7421497857       -3.5219948209
 H          3.5480792124        4.8682527486       -2.6311697784
 H          3.9023488152        4.2765243844       -4.0112718613
 O          1.1606584882        0.6200746244       -6.5894714540
 H          1.3050195798       -0.3335261235       -6.3815298571
 H          0.3763929078        0.6724504207       -7.1426532700
 O         -3.3712743803        1.5938203226        4.5044004492
 H         -3.5108186350        1.3582346292        3.5592357419
 H         -3.9553327789        1.0152563050        5.0004327232
 O          2.1076419770        5.3747529473        2.1409189683
 H          3.0589722504        5.1904112204        2.0654015535
 H          1.8276906622        4.8762988052        2.9361870434
 O         -0.5997299447        6.3092485890        1.9500934087
 H          0.3565405043        6.2074108511        2.0166774152
 H         -0.9833317755        5.7772257604        2.6784422165
 O         -5.3378073900        1.4881615227       -0.0009374482
 H         -5.0186092215        0.7052252026       -0.5238412906
 H         -5.2195838909        2.2313323667       -0.6152457360
 O         -0.6476854111        1.4729291094        4.2825346458
 H         -0.6324034629        0.9801201526        3.4339362541
 H         -1.5966208910        1.5562610808        4.4910481237
 O          2.4890778619        0.3114787103        2.8022652522
 H          1.8295662273        0.9088496187        2.3932404809
 H          2.0923300746        0.0065739615        3.6349980842
 O         -2.4533148765        1.1578662328       -3.5335802076
 H         -2.5505743246        0.2065396277       -3.2726732141
 H         -1.5448117466        1.2104452733       -3.8989721159
 O          5.4750323229       -3.9928716352        1.6993611378
 H          4.9171800467       -3.8586521911        2.5071117597
 H          6.3128354062       -4.3516851305        1.9875024253
 O         -1.5617561725       -0.3678464504        6.4593435591
 H         -1.2437198502        0.4652301393        6.8237442169
 H         -0.9116653580       -1.0477392333        6.6811334753
 O         -0.3372035719        5.3647230843       -1.9379188471
 H         -0.1869730141        6.2895426834       -2.1374408521
 H          0.3617860653        5.0990451266       -1.2843222935
 O          1.5029211034        4.5141951134       -0.2656856732
 H          1.5760781599        4.8208463464        0.6717986616
 H          2.3981623409        4.6183796096       -0.6269460961
 O          2.1712868276       -2.9376519740       -1.3559052107
 H          2.7040402782       -3.4748784149       -0.7341578570
 H          1.3055854584       -2.8212889378       -0.9340243337
 O         -1.2548930426       -1.5548412899       -5.6467248398
 H         -1.3900424609       -0.6576238723       -6.0098947136
 H         -0.2988902243       -1.7263718864       -5.6464466433
 O         -0.5855812647       -5.5019219140       -2.8036496023
 H         -1.2481869821       -5.5288613130       -2.0901307085
 H          0.2212715638       -5.8481285901       -2.3842720709
 O         -1.7437982149        0.9045111173       -6.6741535624
 H         -2.7041555910        0.8334746346       -6.5698788152
 H         -1.5165719074        1.7527596685       -6.2536505672
 O          4.6638550813        4.3397502144        1.9363633869
 H          4.5300032999        3.4701864433        2.3858074724
 H          5.4056234262        4.7509092605        2.3796106148
 O         -0.8441245800       -0.3035074351        2.3355470392
 H         -1.1865914855       -0.1589064447        1.4302249854
 H         -1.5779359914       -0.6859366851        2.8596616890
 O         -3.3017863787       -1.7242775550        1.3816882155
 H         -3.0013049552       -1.9451465781        0.4772078890
 H         -3.3282156475       -0.7526532609        1.4626261775
 O         -2.8002110661        4.4061403200       -3.4702799814
 H         -2.4492367146        3.9154701507       -4.2286169301
 H         -2.0361711119        4.6668285991       -2.9465709702
 O         -4.8008984360       -4.6454694599        0.3094849115
 H         -5.2718813585       -4.1023548980        0.9625797230
 H         -4.8779680787       -4.1482047317       -0.5220538201
 O          5.1477878924        3.1522352905       -4.6873719971
 H          5.7922353874        3.3337304398       -5.3704962037
 H          4.5771287251        2.4109483561       -5.0085744589
 O          2.4994901406        1.5518408059       -2.7101080211
 H          1.7856537905        1.7577109606       -2.0828877448
 H          3.3446525610        1.8400923482       -2.3205229562
 O         -4.5658929569        5.6676737927        0.3427993727
 H         -4.6597432974        6.5417496473        0.7203338603
 H         -3.6053689319        5.4461169348        0.3589403586
 O         -1.7138555021        4.5210205345        3.6155968421
 H         -2.6913919369        4.5147796702        3.7847300504
 H         -1.3093725775        4.5385102474        4.4957971894
 O          0.7577037200        3.7218329589       -3.8412888104
 H          0.3014550280        4.2381927075       -3.1577343261
 H          1.6869834600        4.0324159958       -3.8190283600
 O         -2.5944068974       -1.3045521651        4.1081958826
 H         -3.4877376810       -0.9215954865        4.0191175802
 H         -2.2506362163       -0.9789936878        4.9588455320
 O         -1.0580001013       -3.9940643735        4.8577915245
 H         -1.0962973788       -3.7173314566        3.9129570774
 H         -1.9643543981       -4.1931196706        5.1032119608
 O         -5.6261992888       -2.7176231647        2.1282236250
 H         -4.7676735590       -2.3263527918        1.8346349058
 H         -6.2816499671       -2.0368423554        1.9499725773
 O         -5.1823950419       -0.5081952030        4.1638628248
 H         -5.6274625517       -0.2699095697        3.3283054178
 H         -5.6375586592       -1.2828045125        4.4983346816
 O         -2.5379977668       -1.4405484256       -3.2624030939
 H         -3.4375618595       -1.6136979375       -3.6167543258
 H         -1.9127103501       -1.6855258156       -3.9682276579
 O         -4.2303126066        4.1642343405        4.1965476670
 H         -4.0276285170        3.2624698451        4.5014889202
 H         -4.8162155354        4.0453583848        3.4287341296
 O         -3.9338101026       -3.7229821672        4.1285064033
 H         -4.7018459330       -3.5122253001        3.5782269487
 H         -3.3892109093       -2.9129433793        4.1193574771
 O         -4.8639152814       -3.0705472524       -1.9988363402
 H         -4.1825161455       -3.5445726686       -2.5197170160
 H         -5.5168293653       -2.8019173623       -2.6499449182
 O          1.4338736650       -6.2413654285       -1.1367568615
 H          2.1627326731       -5.7738077817       -0.6974440362
 H          0.8279768399       -6.4846827459       -0.4271091836
 O          3.1648702148       -4.7041232140        0.3523081146
 H          4.0567589238       -4.5756958527        0.7079613755
 H          2.5541821407       -4.6544787270        1.1138170721
 O         -4.5806972610        3.6448313338       -1.5340304501
 H         -4.7719548026        4.4492895619       -1.0342575801
 H         -4.1506645139        3.9281507878       -2.3603567185
 O         -5.6159342119        3.6432944674        1.9021588932
 H         -5.3510005734        4.3973987499        1.3496280153
 H         -5.6317259907        2.8790999943        1.3176892550
 O          4.1831965449        4.4746070844       -0.8024515709
 H          4.7023778188        3.7620099488       -1.2263182459
 H          4.5618998570        4.6139155255        0.0800921327
 O          1.3839976649        3.8673849459        4.2171613204
 H          0.7531049773        4.2885936878        4.8137148383
 H          1.9839618061        3.3293709697        4.7828936547
 O          1.3953751178       -0.0334676935        5.2421307359
 H          0.5751299820        0.4220412853        4.9555749282
 H          1.1145863769       -0.8444927863        5.6952484108
 O          2.7444278136       -4.5779392632       -3.3642750717
 H          2.5037676279       -5.4630189832       -3.0832467676
 H          2.3492170534       -3.9684870189       -2.7000443156
 O          1.4449162142       -1.7847209658       -5.5358856006
 H          2.1786582228       -2.3800185312       -5.8124218246
 H          1.7533819953       -1.4391026343       -4.6641903009
 O          6.1329693376       -0.0953969652       -1.8865220842
 H          5.9334964026       -0.7933352784       -1.2361061346
 H          5.8796072769       -0.4839350410       -2.7430433224
 O         -4.8645789437       -1.6654592814       -4.5703251507
 H         -4.7995656081       -0.7743418150       -4.9543041731
 H         -4.5566610769       -2.2744767593       -5.2552467694
 O          1.3919680003       -4.5821955572        2.4236904199
 H          1.0970724371       -3.6803330419        2.6872885361
 H          2.0093764094       -4.8420073482        3.1142721463
 O         -6.6661121958       -0.0095319246        1.9033936780
 H         -6.2560790476        0.4931736012        1.1784860174
 H         -7.4641355469        0.4647365114        2.1394569419
 O         -3.2357416016       -3.2444487638       -6.2015710022
 H         -3.1120561179       -3.6882489267       -7.0396619393
 H         -2.4688779155       -2.6419075053       -6.0740122799
 O          3.6150828199       -3.2585452919       -5.6578035804
 H          4.2738131113       -2.6586386670       -5.2791455157
 H          3.3686247752       -3.8782019489       -4.9529843143
 O         -1.2459948922        3.4172433306       -5.6043485573
 H         -0.4381742546        3.5170050920       -5.0567648230
 H         -1.1834739895        4.0550067801       -6.3151581370
 O          4.4407007671        2.0423831280        3.3457173643
 H          3.7625724994        1.3862988043        3.0482653708
 H          5.2811134578        1.5896999137        3.2375811875
 O          5.9587782391        1.2738629494        0.8947245944
 H          5.0697990665        1.6434389152        0.7537824329
 H          6.3005439420        1.0058903228        0.0383278236
 O          0.5025020280        2.0984709708       -0.9191491741
 H         -0.4370988297        2.2796525062       -1.0967721535
 H          0.8591956696        2.9085983994       -0.5117284062
 O         -1.5120196937        2.7465297663        1.6388358766
 H         -1.5643808556        3.2672341109        2.4712492822
 H         -1.7321243590        3.3991775611        0.9466561245
 O          0.0083238087        2.1855750442        6.8142518214
 H          0.9613921458        2.1963880984        6.9418145007
 H         -0.1382066073        2.0065624608        5.8660451280
 O          2.9032659026        2.2246217835        5.6412226568
 H          3.6456498650        2.1988472032        5.0148155674
 H          2.4773783159        1.3533604236        5.5817973459
 O          5.3207511887       -0.7379868423        2.6132382459
 H          5.6999952063       -0.0934630329        1.9919211560
 H          4.7974652983       -1.3407917320        2.0746323151
 O         -2.9925595028       -5.4790494776        2.2625532300
 H         -3.3680481213       -5.0818252299        3.0704948921
 H         -3.6694463165       -5.3389980109        1.5810601128
 O         -1.3744125416       -3.3749384705        2.2648624486
 H         -2.0665392858       -2.6966219579        2.1304005899
 H         -1.8384135959       -4.2253153508        2.1103331806
 O          5.1823421970       -3.5363151534       -2.5654562041
 H          4.3775156785       -4.0084758393       -2.8423034507
 H          5.3616628406       -2.8724386080       -3.2389904855
 O          0.3896762706       -2.3589032079        6.2661786102
 H         -0.2038872281       -3.0082509466        5.7975618323
 H          0.9693124569       -2.8792715975        6.8227328637
