  282
       -473.35565872
 H         -0.2848235183       -0.5021764290       -1.1818707035
 C         -0.2139375737       -0.4034401799       -0.0988835966
 H         -1.0991686919        0.1237937033        0.2489362117
 C          1.0254815335        0.3893697237        0.2864739105
 H          1.0221604096        0.6081223493        1.3500885265
 H          1.0308691291        1.3276275530       -0.2636308431
 O         -0.2211100049       -1.6835183869        0.5127703432
 H          0.5152136412       -2.2231200971        0.1474407730
 N          2.2433992180       -0.3839279620       -0.0255090885
 H          2.1390403801       -0.8710435724       -0.9542232662
 H          2.3910291731       -1.0998810287        0.7027445561
 H          3.0539416145        0.2553596689       -0.0997478394
 O          0.1844891397        1.3683467853        3.8231034068
 H          1.1148624585        1.1007352975        3.7495678904
 H          0.0701359223        2.0459986659        3.1111290906
 O          3.6104906673        1.8003700195       -0.9024018496
 H          3.4631427279        1.4958986981       -1.8126444021
 H          4.3663349348        2.4156761817       -0.9617700536
 O          2.5705209979       -0.2455701692       -5.6303488594
 H          1.5994038648       -0.4215283972       -5.6472882525
 H          2.6567641894        0.6641949017       -5.9326736240
 O          4.1337820628       -3.4483083831       -1.4412490429
 H          3.2695544830       -3.3190581240       -0.9848551037
 H          3.9350465261       -3.7940714049       -2.3135493288
 O         -1.6197439376        2.8078107418       -2.8584715532
 H         -0.7074613966        2.8430356943       -2.5147355763
 H         -2.1236961598        2.3058314219       -2.1853357484
 O         -2.9142303835        3.7075486026        0.1591607202
 H         -3.0878682236        4.3422816741        0.8738867902
 H         -2.7171446038        2.8421626091        0.5826919060
 O          1.7784176147       -4.5386641131       -4.1467892191
 H          0.9459246644       -4.1719873123       -4.4824441174
 H          2.4566154571       -3.8687181422       -4.3266373780
 O          3.4109123505        5.3597805225        0.1270176928
 H          3.1563754286        4.5561259264        0.6249952313
 H          2.6946224293        5.9904269040        0.3495170094
 O          2.6668021952        0.6277159994        3.0633270749
 H          3.1653454742        0.7047691211        3.9045252248
 H          3.3261347312        0.7713561620        2.3643080033
 O          2.6118844116       -6.4154010114        0.8046409176
 H          2.3060250992       -6.3112404397       -0.1073942762
 H          3.5262989643       -6.0862156993        0.8166564387
 O          4.7830034844       -0.8601219455       -1.1363390089
 H          4.7173446266       -1.8236299966       -1.2397833163
 H          4.3540912574       -0.4703655635       -1.9232583999
 O         -2.1110889943        1.5843817704        1.5575115887
 H         -1.2424849783        2.0115629725        1.4924087418
 H         -2.4563079287        1.8554503541        2.4364632898
 O          0.8317886405        0.8187856494       -3.2156177581
 H          1.3784074076        1.3408040348       -3.8483237560
 H          0.6992890187        1.4291571386       -2.4738686291
 O         -2.7630370544       -2.1635371839       -0.8204815826
 H         -3.3376634976       -1.5882339171       -1.3586154230
 H         -2.8360697241       -1.8367194039        0.0989747320
 O         -0.6910336226        4.9568635836       -0.6357777383
 H         -0.9570211352        5.3584266424       -1.4779854067
 H         -1.4960524149        4.5050487293       -0.3013307963
 O         -1.1034985709       -2.5221214720        5.1911004606
 H         -1.0509867943       -2.0467328614        4.3344154846
 H         -0.9509633270       -1.8180635117        5.8397360227
 O         -5.7042571416        5.0201602359        0.4691136863
 H         -5.3680624717        4.7016413531       -0.3833836880
 H         -6.6434587261        4.7978264954        0.4982218066
 O         -4.8219499669       -2.6123520062        2.8429223719
 H         -4.5474867825       -3.4992820759        2.5586359123
 H         -4.2352770407       -1.9893878294        2.3588537590
 O         -2.7741323718        1.0993133228       -1.2020374003
 H         -2.6522865570        0.3064440355       -1.7439534444
 H         -3.4719660597        0.9421504854       -0.5523027839
 O         -4.7223113361       -0.8408579028       -2.1355129851
 H         -4.7137352859        0.0319080087       -2.5864940936
 H         -5.1802479590       -1.4533955433       -2.7513770986
 O         -3.8370320434       -2.1659526673        5.3622382586
 H         -2.9122257746       -2.4662074146        5.3499478454
 H         -4.2242769210       -2.4101176565        4.5030008534
 O         -2.1126603167       -0.8434200948       -3.1794599664
 H         -2.6184722049       -1.5551104123       -3.5936643828
 H         -2.1639593009       -0.0983404351       -3.8073772390
 O         -5.6345931096       -1.7129884135        0.1514854535
 H         -5.4941787249       -2.6842380735        0.1492412644
 H         -5.3656198415       -1.4032296482       -0.7411580953
 O         -1.2927975517       -4.1231098261        1.2580058100
 H         -0.4368160961       -4.3509604812        1.6782947191
 H         -1.2189568693       -3.1921668548        0.9970194966
 O         -5.3746601045       -4.3638396665       -0.1488915070
 H         -4.7733486790       -4.5148890865       -0.9029099206
 H         -4.9219920214       -4.7346291521        0.6223699727
 O          0.7478388256        2.9051477122       -1.4868239894
 H          1.5064506070        3.4115517145       -1.8478652490
 H          0.2504657889        3.5864302091       -0.9829800652
 O          4.7607823249        0.4064628768        1.3418527928
 H          4.9611339659       -0.1691322309        0.5830758604
 H          5.1692744960       -0.0223652635        2.1226234931
 O          6.5441331417       -1.6723197263        0.7813921732
 H          7.2821311265       -1.5891094529        1.3963140838
 H          5.8616760406       -2.2009234815        1.2459919361
 O          2.2503954556        2.4368613727       -4.7912197667
 H          3.0772471285        2.7394510772       -4.3905654811
 H          1.6573609714        3.2098625871       -4.7907812575
 O         -7.0952893190       -0.0179456377       -4.0885685914
 H         -6.3401171358        0.5898103924       -4.0536146848
 H         -7.6055429591        0.1432470064       -3.2803314917
 O          0.1468936881        3.0418818041        1.7889681126
 H         -0.0942423521        3.9471299553        2.0988653478
 H          1.0917878357        3.0860066994        1.5611996712
 O          1.5387576805       -5.4562432715       -1.6451242307
 H          0.6143156179       -5.7301708605       -1.5575970998
 H          1.6622050076       -5.2204677192       -2.5903838835
 O         -4.8619417360        0.7981098130        0.7958401183
 H         -5.5393794362        1.3122392465        0.3162949589
 H         -5.1001725638       -0.1365692642        0.6673097523
 O          9.2030260689       -0.4553537874       -1.1161225936
 H          8.6774824944       -1.2862887701       -1.2604075201
 H          9.9027280699       -0.4521736368       -1.7688744034
 O         -0.9145121239        3.7962476183        5.0207284567
 H         -0.2606530761        3.0907553432        5.0179383528
 H         -1.7325994689        3.3832070894        4.6811850761
 O          2.2298498025       -1.8725158672        2.3401584566
 H          2.3598058175       -0.9999167286        2.7720496969
 H          1.8312810391       -2.4363872761        3.0325489217
 O          4.7720618033        3.2539995694       -3.5395627758
 H          5.2166201879        3.4405606262       -2.6966377625
 H          5.3854922266        2.6975141158       -4.0307421774
 O         -7.5021781114        2.8499122758        3.5300185433
 H         -7.9327870864        2.8025820405        4.3831700140
 H         -6.9843903628        2.0046880767        3.4211921404
 O         -5.0593038736        3.9922320188        2.8867668304
 H         -5.2699882010        4.2449721589        1.9637685757
 H         -5.9031221849        3.7334210080        3.2816672615
 O         -2.2647280957        1.2460067154       -4.8964557237
 H         -1.9008328394        1.9193089485       -4.2784873767
 H         -1.5653111325        1.0125123182       -5.5141662549
 O         -3.7212470291       -4.9662953449        1.9910259118
 H         -3.6014071536       -5.7114690681        2.5793472541
 H         -2.8237616604       -4.6513577091        1.7432489121
 O         -0.7642057931       -1.0300380421        3.0367601904
 H         -0.2533708444       -1.2917770203        2.2508786798
 H         -0.4774087903       -0.1316789563        3.3039580445
 O          1.7908013096       -1.4957284385       -2.4261563342
 H          1.4538708126       -0.6459588855       -2.8076010610
 H          1.0202728593       -2.0875060248       -2.3231279302
 O         -7.3041839009       -1.6503051170        2.8392788212
 H         -6.4231432074       -2.0790190705        2.7224199649
 H         -7.6583405009       -2.0114842503        3.6523208523
 O         -2.9938509939        2.4917131501        3.8719290682
 H         -3.3384826315        1.7555245635        4.4235994419
 H         -3.7641868900        3.0124265808        3.5866101150
 O          1.8174417806       -3.3045065211       -0.1507432926
 H          1.5842608674       -4.0807140017       -0.7150121538
 H          1.7723099612       -3.6472038630        0.7629025468
 O         -0.4577044830       -2.9381932924       -2.0487333790
 H         -0.5843568093       -3.8635370656       -1.7459317739
 H         -1.2204779602       -2.4428702031       -1.6923482895
 O          5.7322881450       -0.7809212251        3.5816252432
 H          6.6938276680       -0.8417167915        3.4765210785
 H          5.3779576023       -1.6631157853        3.3788143384
 O          3.5387565370       -2.3925621704       -4.2079605549
 H          3.3360548578       -1.8094617424       -4.9551241464
 H          2.9700018488       -2.0440224722       -3.4788900409
 O          4.8236037569        3.0564926814        3.2875958395
 H          4.8682192252        3.9842860471        3.5207713663
 H          5.5435374539        2.8908258874        2.6421375014
 O          7.5633001033       -4.9684470498       -0.2813047915
 H          7.6248474238       -4.1339791435       -0.7809177374
 H          8.1927055473       -5.5767221519       -0.6665950948
 O         -3.5818925985       -2.8913626249       -4.5656871649
 H         -4.5208841305       -2.7850662736       -4.2998313379
 H         -3.5711588620       -2.7023369223       -5.5053234125
 O         -4.7910726920        3.4678492387       -1.7693701895
 H         -4.0200239572        3.4273150665       -1.1683759429
 H         -5.4932811137        2.9363684056       -1.3557301749
 O         -3.1135636102        5.6903303742        2.0855822911
 H         -3.7302326460        5.2369543481        2.6820842702
 H         -3.6142611623        6.3778065815        1.6431134393
 O         -6.0819491303       -2.4450015215       -3.7390996901
 H         -6.5865582549       -1.6600467463       -4.0512613216
 H         -6.6722491335       -2.9341576103       -3.1251859029
 O          0.7107100049        4.6280723690       -4.3031350719
 H          1.3180120449        4.8940695363       -3.5966891482
 H         -0.1437105705        5.0136832933       -4.0765925985
 O         -1.1236758727       -5.3550468859       -1.1297946582
 H         -2.0147558287       -5.3216944398       -1.5177406035
 H         -1.2237004975       -5.0526585240       -0.2033482376
 O         -7.5307482475       -3.5670833681       -1.7807546197
 H         -6.9231070786       -4.0477490606       -1.2024765096
 H         -8.0081726275       -2.9518060016       -1.2073966474
 O          2.8114292631        3.0394409948        1.3575855898
 H          3.4635608057        2.9180311232        2.0672655620
 H          3.0807383227        2.5060877294        0.5887868399
 O          8.9989676887        1.0993711312        1.1312962933
 H          9.7455395156        1.6996276589        1.1249681414
 H          9.0713798546        0.5482954938        0.3275405016
 O          6.4821005866        2.4398445434        1.2625471114
 H          7.3640608006        2.0493375064        1.1948741902
 H          5.8588585088        1.6905207986        1.1164599232
 O         -1.7877212866        5.4328933631       -3.1164590174
 H         -1.8981652166        4.4549774928       -3.0758626977
 H         -2.6470965859        5.7995598598       -3.3203506523
 O          4.2983936762        0.9694111944        5.1267824587
 H          4.5766828734        1.8092372790        4.7320367890
 H          4.9238937081        0.3037452634        4.7942552876
 O          6.1412570608       -1.9094511150       -3.8160253992
 H          6.5488524775       -2.4104456526       -4.5224301233
 H          5.1705873916       -2.0789241717       -3.8885656512
 O         -0.6061126697       -3.1598424516       -4.6623453878
 H         -0.5925930363       -3.0036788744       -3.6848508173
 H         -1.5028511292       -3.4349467746       -4.8621596353
 O          4.9760327052       -5.0201735898        0.6039070744
 H          5.9218412999       -5.1977801910        0.4858474292
 H          4.7277784279       -4.5077736813       -0.1902661496
 O         -0.0576484340       -0.5804087479       -5.3839274577
 H         -0.2723151750       -1.5182588477       -5.2258130808
 H         -0.0336754310       -0.1611109153       -4.5073048627
 O         -6.0403708339        0.7140094836        3.2092528273
 H         -6.5540912007       -0.1075206436        3.0721970394
 H         -5.5023765938        0.8312707643        2.3933500504
 O         -4.7396681909        1.4132456492       -3.5651527308
 H         -4.6797840300        2.2308821375       -3.0296249054
 H         -3.9821618610        1.4142925898       -4.1649136466
 O         -0.8584089172        0.1162289784        6.0798177484
 H         -0.6204127994        0.6488592706        5.3042372897
 H         -1.7794851115        0.3192806000        6.2622635726
 O         -3.0081510139       -1.0735495858        1.6398191299
 H         -2.2232523670       -1.1301319792        2.2255911922
 H         -3.1161846912       -0.1216777631        1.4900716381
 O          5.4732190605        3.7682432484       -0.9093001865
 H          4.9676096424        4.5054843598       -0.5371812868
 H          6.0135714217        3.3939705118       -0.1906911101
 O         -8.2347461987       -1.5768653403        0.1147478735
 H         -7.2411414223       -1.6012911607        0.1665989827
 H         -8.5049800298       -1.5715834146        1.0373082019
 O          1.9407211540       -0.7660555566        5.5649476481
 H          2.6566170107       -0.1842489228        5.8361295435
 H          1.1301714238       -0.4423648676        5.9725694759
 O         -8.1889198622        3.7992223125        1.0883251827
 H         -9.0710200711        4.1697255136        1.1162782704
 H         -7.9839328104        3.4799982467        1.9906647054
 O         -4.0824492474        0.4810256905        5.1854276651
 H         -4.8702083108        0.5250315378        4.6210753045
 H         -3.9437324529       -0.4805041564        5.3402857538
 O          3.7406322824        0.4332090418       -3.2429794975
 H          3.2442347206        0.2018241124       -4.0478287770
 H          4.6182188535        0.7328260884       -3.5576800817
 O          2.6205285172        4.6016427837       -2.3182565658
 H          3.4007194227        4.2994916276       -2.7956076939
 H          2.9322406360        4.9835684385       -1.4674645241
 O         -8.5191779783        0.3424716596       -1.6878158207
 H         -8.4626731228       -0.3949773003       -1.0329880440
 H         -9.4437520282        0.4394564225       -1.9157751983
 O          6.2889342474        0.9021114078       -3.9092662783
 H          6.5656585290        1.0666745116       -2.9768527502
 H          6.4106586261       -0.0495432020       -4.0411630265
 O          6.7997562803        0.9593299298       -1.3068661306
 H          7.6612571839        0.5332284576       -1.2232069512
 H          6.1334237930        0.2708380280       -1.1246141605
 O          1.1894152256       -4.6278799747        2.1055466114
 H          1.4108419688       -4.4941229438        3.0347671587
 H          1.6743084865       -5.4220084312        1.7743941110
 O         -0.4700927039        5.3589146937        2.8930087977
 H         -0.5844146176        4.9582981381        3.7820559662
 H         -1.3578918241        5.6120874055        2.6011151464
 O          7.5497951738       -2.4791165533       -1.4957705518
 H          6.9821526251       -2.2815380600       -2.2622450357
 H          7.0445373207       -2.1941893812       -0.6932565669
 O         -6.7950155624        2.0807668988       -0.5320727633
 H         -7.3508888821        2.6682717019        0.0035359562
 H         -7.3960285219        1.4935507330       -1.0244586962
 O          4.6945194916       -2.9201483824        2.2537087506
 H          3.7602012609       -2.6198910682        2.2315485577
 H          4.7290922784       -3.7975591184        1.8248569684
 O          1.4285743538       -3.2569183483        4.5154180629
 H          1.8450891656       -2.5451630152        5.0258558976
 H          0.4910548810       -3.2177647514        4.7877160314
 O          1.0891100434        6.4757585815        0.8336877616
 H          0.7477337265        6.2909075758        1.7175133635
 H          0.4707407395        6.0211743669        0.2369875425
 O         -3.4624020461       -4.3895061162       -2.0634715147
 H         -3.5685839463       -4.1330545778       -2.9847960618
 H         -3.1827401514       -3.5719223599       -1.5866552679
 O          8.3674787847       -0.9502327966        2.8008029009
 H          9.1539696681       -1.2823588557        3.2334114306
 H          8.6175873868       -0.1434180575        2.3103271438
