  99
       -167.97209839
 O         -2.1890960539       -3.8236380252        0.9835737349
 H         -2.3936967333       -4.7559854019        1.0487716470
 H         -1.5330282494       -3.6366525542        1.7279113653
 O          3.3778242844        2.4306269975        2.9473618602
 H          3.4393277524        2.9663528470        3.7370741868
 H          2.5180434524        2.6578781601        2.5052878465
 O          2.8869931055       -0.7534819290       -2.9693166308
 H          2.1264887986       -0.4848973863       -3.5066437482
 H          3.4957474492        0.0206821379       -2.9757212935
 O          2.3656632306        0.0081884816       -0.3546132499
 H          2.7707128267       -0.4128644363       -1.1298133736
 H          1.3901102785       -0.0719360313       -0.5241519687
 O         -6.1806395611       -0.7758375069        2.0590055023
 H         -6.5563689596       -1.0583016363        2.8940475305
 H         -5.2895414186       -1.1845081667        2.0128078196
 O         -2.9863975167        2.6257094046        2.1305858516
 H         -2.5396626817        2.0782127758        2.7941707736
 H         -3.9341816495        2.4428387234        2.2307420871
 O         -3.1196910107        0.0366590910       -4.2648046753
 H         -3.6046214564       -0.1725561716       -3.4292784786
 H         -2.6179840729       -0.7646542378       -4.4579944682
 O         -0.0392210947        0.0467921430       -1.2912342590
 H          0.1396976388       -0.1854484593       -2.2200436929
 H         -0.1425816602        1.0216620790       -1.3035179257
 O          1.1971504735        2.8925859085        1.5487138374
 H          0.7343054338        2.0282904403        1.5398679269
 H          1.6507153108        2.9493671908        0.6836203619
 O         -0.1365104981        2.6827635836       -1.6327205083
 H         -0.6343069079        3.1754000458       -0.9355335406
 H         -0.6504306595        2.7016829642       -2.4504738200
 O         -1.2117424867        3.8781530974        0.4627514212
 H         -0.4173933485        3.8027418531        1.0127932178
 H         -1.9255160978        3.4848369929        0.9954744369
 O          5.4997862209        0.3180901480        0.0339696204
 H          5.0955682812       -0.0628876368        0.8304587019
 H          5.4923227990        1.2810163149        0.2177596959
 O          2.4708901745        2.6048338415       -0.8558805765
 H          1.6384897674        2.7680534714       -1.3317136805
 H          2.4667717174        1.6355035538       -0.6491820535
 O         -1.3578754619        1.0537889922        3.8095812244
 H         -0.7877731281        1.5774488132        4.3722146659
 H         -0.8401601270        0.8442025538        2.9931764251
 O         -1.3686879969        1.9741172739       -4.0499844446
 H         -2.0953097120        1.2947886278       -4.0999473642
 H         -1.4869843807        2.5442669736       -4.8094835468
 O         -1.6182334096       -2.3413357387       -1.2352931308
 H         -1.8138298540       -2.9618811558       -0.5098559397
 H         -0.6459946461       -2.3838570868       -1.3605115969
 O          0.9502039259       -2.7624120290       -1.9418838796
 H          1.4823847728       -3.0386739732       -1.1764744283
 H          1.5124855071       -2.1465126063       -2.4248837189
 O         -0.6186535500       -3.3104302465        2.9681454090
 H          0.1406322696       -2.7662436215        2.6995586847
 H         -1.1592664259       -2.7342450139        3.5546126815
 O         -0.0647349228        0.5106912546        1.5683685817
 H          0.4270686081       -0.3341161563        1.6524468891
 H         -0.8100161618        0.3480017233        0.9611615525
 O         -1.4432157063       -2.2232872466       -3.9718378246
 H         -0.9223904138       -3.0076231207       -4.1534510092
 H         -1.6326484550       -2.2528960293       -3.0134432769
 O          2.6817287033       -3.2081864617        0.1118419574
 H          3.4542978648       -2.7531140551       -0.3131460221
 H          3.0171565086       -4.0306818363        0.4678428308
 O          0.3743485438       -0.1652961523       -3.9757137491
 H         -0.1163897663        0.6661442524       -4.1034136508
 H         -0.2609121732       -0.8878232777       -4.1325735460
 O          4.6552400805       -2.0584444742       -1.2122422562
 H          4.2555009954       -1.7785702070       -2.0452931082
 H          5.0908806705       -1.2772319270       -0.8362219769
 O          1.3828069071       -1.7163723848        1.9884620302
 H          1.7267211401       -2.2439643787        1.2439652155
 H          2.1766768133       -1.2787516851        2.3465256335
 O          4.4656580037        1.3125174781       -2.4407766077
 H          3.9096164680        2.0096003167       -2.0632634807
 H          5.0048670820        0.9819076056       -1.7061339204
 O          3.6147232927       -0.1919475432        2.0466246318
 H          3.1629756264       -0.0634833371        1.1885852925
 H          3.5951642704        0.6693435504        2.4881498749
 O         -5.6543989849        1.8960097633        2.2424005420
 H         -5.8390273615        0.9377687047        2.1682498425
 H         -6.2927793580        2.3398914948        1.6841324198
 O         -2.2207663017       -1.5587233028        4.2269999310
 H         -1.9168943395       -0.6373256882        4.2338966316
 H         -2.8901890993       -1.5948724982        3.5215337640
 O         -3.6764478419       -1.7153445333        1.9010262888
 H         -3.2244952806       -1.0227578743        1.3749532064
 H         -3.3096635307       -2.5550817645        1.5715875343
 O          4.8696162021        2.8749738943        0.6339855752
 H          4.1159905263        3.0505591762        0.0561090151
 H          4.4949901842        2.7709112560        1.5237953738
 O         -2.3453269063       -0.1097817056        0.1531964053
 H         -2.3720844910        0.7705736869       -0.2823444465
 H         -1.9061344342       -0.7400776153       -0.4577724920
 O         -4.5222230929       -0.0143233017       -1.6587326234
 H         -5.3893797841       -0.2230655592       -1.3094436236
 H         -3.8816100764       -0.2609661906       -0.9683111469
 O         -2.9410019488        2.2217145834       -1.0038131116
 H         -3.7136969389        1.8850705729       -1.4695808452
 H         -3.2368691437        2.7190457965       -0.2357928481
