  87
       -142.30353054
 H         -1.1894977442        0.4606413741       -1.5966781990
 C         -0.7486486404        0.5528764747       -0.6015115833
 H         -0.3218549308        1.5490239247       -0.4847471943
 C          0.3455589070       -0.4977845676       -0.4597980067
 H          1.0114508792       -0.4591648079       -1.3185259565
 H         -0.1197646318       -1.4806793880       -0.4054591365
 O         -1.7326641968        0.4109001904        0.3889704006
 H         -2.1403441022       -0.4612810006        0.2363102985
 N          1.1046761451       -0.2753154602        0.7797496779
 H          1.6793828819        0.5866445302        0.7120332089
 H          1.6988152129       -1.1079573088        0.9748446001
 H          0.4292154868       -0.1888559215        1.5983457640
 O         -3.1748567945       -0.1014820138        2.9004604715
 H         -3.3669766563        0.6705541577        2.3250551215
 H         -3.5008942400        0.1210150160        3.7742101422
 O         -2.0641083137        3.5657592452        0.2643940108
 H         -1.1647786312        3.4990500818        0.6220199560
 H         -2.0410992704        3.2343540199       -0.6457590571
 O          0.5489721440        3.4953743943        1.2566849019
 H          1.2666692347        3.0301858974        0.7799961311
 H          0.8446042737        4.3948485164        1.4049171847
 O          2.6882082863        1.3142863181       -2.5458984339
 H          2.9237819144        0.3885650769       -2.3085685664
 H          3.3330968352        1.6022845511       -3.1934027002
 O          0.7781299040        1.9845102640        3.6085928252
 H          0.5862494798        2.5698013259        2.8581440916
 H          1.6655543956        1.6260965919        3.4488114454
 O          2.4585650574        2.0460600120        0.0382017685
 H          3.3741983082        2.0247848929        0.3607698310
 H          2.5060273581        1.9054302109       -0.9263293472
 O         -0.4239891936       -0.2482757424        2.9602342076
 H         -0.0639027322        0.5745766188        3.3738231661
 H         -1.3762711030       -0.1032556850        2.8201734279
 O          3.0405151936        0.6793677253        2.6720589731
 H          3.3684416268       -0.2030282002        2.8907217017
 H          3.7922803110        1.1613422519        2.3082055410
 O         -4.6114979547       -1.0154510067       -1.7747697255
 H         -4.6333896311       -0.0975672609       -1.3923520360
 H         -5.5166206243       -1.2515722284       -1.9794969049
 O          5.2965321951       -1.0587283899        0.4129446754
 H          6.1209708034       -1.5276521306        0.2746164900
 H          4.9117462754       -1.3966980529        1.2502244300
 O          2.0497138093       -2.7806026050        1.2014067823
 H          1.2199097330       -3.0113162277        1.6804881475
 H          1.9865504148       -3.1611505433        0.3055126362
 O          4.0865164214       -1.9390580551        2.6533029705
 H          4.3376059312       -2.5243040838        3.3690718909
 H          3.3288168546       -2.3621710618        2.1898277495
 O         -2.9901032524       -2.7038588577        2.0403635754
 H         -3.6110304222       -3.2323560895        2.5430761938
 H         -3.0830286711       -1.7812129033        2.3483360532
 O         -0.2196279255       -2.9394633492        2.5325193887
 H         -0.2206924763       -2.0462935582        2.9151476353
 H         -1.1331919104       -3.0882389783        2.2508155660
 O         -3.8328646302        2.1637398165        1.6127438654
 H         -3.0897799990        2.6574575262        1.1743513413
 H         -4.3945523023        2.8292153377        2.0130551991
 O         -3.0522180395        0.1424538457       -3.7178577030
 H         -3.6223601944       -0.3705364469       -3.1171428815
 H         -2.9622899451        1.0230942253       -3.3274820876
 O         -0.5318420159       -2.9737582587       -2.3825925197
 H         -1.2570656718       -2.7925896255       -1.7605160529
 H         -0.5244809905       -2.2241317346       -3.0047257146
 O         -4.4814117542        1.4606645979       -0.9528950331
 H         -3.7509226595        1.9040303245       -1.4016989656
 H         -4.3262446598        1.6010679462       -0.0015112881
 O         -2.2645876507        2.6488208613       -2.4570984999
 H         -2.5478017573        3.4062084959       -2.9734148455
 H         -1.3686965960        2.4069404818       -2.7947337019
 O          0.0693528531        1.8083462078       -3.4404034552
 H          0.9678897813        1.7814057019       -3.0831703843
 H         -0.1086373704        0.9019200659       -3.7490416896
 O         -2.4373908476       -2.1066870509       -0.5692068015
 H         -3.2571207947       -1.8625085899       -1.0327753885
 H         -2.6980679860       -2.5424314715        0.2562896127
 O          1.8621839052       -3.4130474031       -1.4211035697
 H          2.1556947703       -4.2310704957       -1.8239564158
 H          0.9451596845       -3.2520252582       -1.7776433647
 O         -0.6366758178       -0.7903056517       -4.0671475736
 H         -1.5860415811       -0.5096293576       -3.9656641361
 H         -0.5393010763       -1.0581295055       -4.9822987974
 O          5.0321896049        1.6119728556        0.8977036336
 H          5.1991068469        0.6845602151        0.6364430784
 H          5.8643758930        2.0826061460        0.8411541627
 O          3.3535209181       -1.0952668094       -1.6421810523
 H          4.0266628916       -1.1279661871       -0.9476025944
 H          2.8730826342       -1.9408955913       -1.6172828728
