  146
       -243.92735129
 H         -2.6395784321        0.3563744905       -1.9760734194
 C         -2.6856292452       -0.2713421030       -1.0822632671
 H         -3.4653912109       -1.0190185899       -1.2132764647
 C         -2.9872664458        0.6020740450        0.1416649927
 H         -3.1622125653       -0.0290381744        1.0120624398
 H         -3.8876731447        1.1779116127       -0.0650081049
 N         -1.9119880416        1.5275718222        0.4770076091
 H         -1.6278890846        2.0554921064       -0.3443976185
 H         -1.1154995749        1.0174039233        0.8425185841
 O         -1.4694293055       -0.9762271618       -0.9410149814
 H         -0.7493052188       -0.3231330988       -1.0056219877
 O          3.7906860026       -2.2066652461        3.0387108131
 H          4.0718033606       -1.3073265709        2.8296931974
 H          3.1556903711       -2.1157053310        3.7831116685
 O         -2.7793142294        3.2613312991        2.2106024704
 H         -2.3963225340        2.5339094889        1.6131311794
 H         -3.1797987758        3.8653042891        1.5498246460
 O          0.4830001431       -2.7119697468       -1.9931402013
 H          0.4696857519       -2.1831866894       -1.1712104151
 H         -0.4373461720       -3.0328702787       -2.1173762113
 O          4.4966580252        0.4519307550        2.1732580580
 H          4.3952346647        1.2670335854        1.6454315565
 H          5.4034489762        0.1462349474        1.9656428600
 O         -0.6641432993        4.4400615492        3.1161278577
 H         -1.5020808731        3.9512501299        2.8608397411
 H         -0.9473305491        5.2621767745        3.5153588673
 O         -0.3073292217       -3.1221876600        3.2392395404
 H         -0.7780117148       -2.9571512145        2.3790072840
 H         -0.7633284060       -3.8549005183        3.6527240139
 O          3.8728073619        2.1737602872       -2.2830812711
 H          3.4961026574        1.3127222696       -2.5747191386
 H          4.8220085588        2.0490325874       -2.3707892023
 O         -4.3132488634       -3.4176153894       -0.9363530823
 H         -4.1765352391       -3.9268042091       -0.1338426472
 H         -4.9654945625       -2.7423812830       -0.7151284008
 O          0.3095801861        1.8652951230       -5.0360051905
 H         -0.6229532498        2.0755197616       -4.8356696673
 H          0.3905389520        0.9118803516       -4.9219894228
 O         -1.1931158270        3.7150883645       -1.4764940540
 H         -0.6758623643        3.9953526019       -0.6984218215
 H         -0.5369634368        3.7061491778       -2.1861195693
 O         -2.1260692231       -1.7023700002       -4.3635153729
 H         -2.1504757639       -2.4664677428       -3.7686115999
 H         -1.2390318328       -1.3154947449       -4.2677851212
 O         -3.6055926195        4.4281817849       -0.0537446390
 H         -2.8596567126        4.2721103322       -0.6492789075
 H         -4.3063397654        3.8165753066       -0.3302266050
 O          2.9041963830        4.8001905771        1.3231066717
 H          3.1188423668        5.7169414118        1.1550171888
 H          1.9879797497        4.6491480021        0.9743597616
 O          0.4439939786        4.0950895956        0.6799255960
 H          0.6829982474        3.1408204153        0.7200371907
 H         -0.0140944874        4.2868122940        1.5203883822
 O         -3.9992811329       -2.5533066112        1.8700269875
 H         -3.7063572538       -1.9105450235        2.5362219817
 H         -4.6281318608       -2.0806133521        1.2981832387
 O          5.8726486995       -3.0658635169        1.3139221412
 H          5.3810044777       -3.2351932430        0.4824233396
 H          5.2124671196       -3.0476304725        2.0190847611
 O         -1.9898960946       -3.7009104912       -2.3809436541
 H         -2.8262002524       -3.4730589065       -1.9395701997
 H         -1.6936340489       -4.5100360032       -1.9226654747
 O          1.4309154946        1.6165656176        0.8437920938
 H          2.3580955341        1.8677123756        0.6204689710
 H          1.4701492664        1.2819880779        1.7557997126
 O          1.6968696057       -1.6891548760        4.6184257607
 H          1.6567501009       -0.7460237738        4.4049956476
 H          0.9289619852       -2.1085085699        4.2010144361
 O          1.8769000619       -3.5075607375        1.6723040551
 H          1.1740677786       -3.5640643705        2.3444921386
 H          2.6650287860       -3.1487424610        2.1264654335
 O          0.3967171643        0.9471279144       -1.5350375287
 H          0.8014759574        1.0586769163       -0.6593898672
 H          0.6136639224        1.7796457949       -2.0116962033
 O         -0.4008039762       -0.2470866134        2.3273412950
 H          0.3162314590        0.0778741529        2.8807952951
 H          0.0137194185       -0.7355520235        1.5847643267
 O         -2.7376074342       -0.7126404116        3.5079047320
 H         -1.8917577903       -0.5457849016        3.0311594298
 H         -2.4956877265       -0.9971590630        4.3895806612
 O         -5.7178230713        2.6408062872       -0.5911684989
 H         -6.4950954462        3.1602056224       -0.8017077288
 H         -5.9291550429        2.1376804270        0.2270795983
 O         -4.4340150175        1.4953428756        3.3928822832
 H         -3.8631583588        0.7116568669        3.4544587500
 H         -3.8603456421        2.2141699650        3.0540162866
 O          3.8924110960        2.4287685974        0.4020162686
 H          3.9469026027        2.3723510338       -0.5786162653
 H          3.7569248059        3.3592280339        0.6439743327
 O         -6.2875704006        1.1785744460        1.6073609851
 H         -7.1152258282        1.2776375299        2.0782169163
 H         -5.5652911295        1.2917145933        2.2937889537
 O         -3.8976798063        0.2073294611       -4.1145852252
 H         -4.3677206801        0.2020849652       -4.9495228899
 H         -3.2578365222       -0.5545259747       -4.1662614615
 O          2.0228847112       -4.6150685934       -0.8475075534
 H          1.4957542987       -3.9794574875       -1.3747087009
 H          1.9250543371       -4.3648986825        0.0844215922
 O          4.2838158978       -3.1129201634       -0.8675491776
 H          3.8635041041       -2.2772049130       -0.5898877214
 H          3.5699306813       -3.7796717947       -0.9463528342
 O         -1.5386492449       -2.9681373654        0.9199888768
 H         -2.4783067442       -2.9205471044        1.2030983448
 H         -1.4422694243       -2.2482494605        0.2643479705
 O          6.7684084156       -0.6224951013        1.2075958054
 H          6.4754820626       -1.5807926828        1.2100915121
 H          7.6675360626       -0.6200651589        1.5338123108
 O          0.3846128617       -0.6962491991       -3.6922570622
 H          0.1989663188       -0.0556940778       -2.9808285274
 H          0.4756712153       -1.5534818092       -3.2122215350
 O          0.9777435293       -1.4169981422        0.3438408434
 H          1.2768355534       -2.2335809045        0.8084578333
 H          1.7893650517       -0.9344490331        0.1207837842
 O          1.2063654030        3.1042158591       -2.8719659292
 H          2.1651464663        3.0509674147       -2.7841306890
 H          0.9837818356        2.7533356920       -3.7675780815
 O          2.9599018853       -0.2727486690       -2.9734045084
 H          2.7825188545       -0.5662731787       -2.0721867391
 H          2.1201429402       -0.3806127285       -3.4595520235
 O         -2.1686663775        2.3406891733       -4.0130698614
 H         -2.1603315237        2.7258143631       -3.1324399783
 H         -2.8269606738        1.6224182128       -4.0173974477
 O          5.4215171613       -1.6585149481       -2.9284233922
 H          5.1517488056       -2.3668581215       -2.3178810944
 H          4.5993500183       -1.2928173954       -3.2850958854
 O         -5.7294209866       -1.1669519781        0.1815571904
 H         -5.9933956610       -0.4460734859        0.7735466600
 H         -5.7969337515       -0.7651939751       -0.7099999502
 O         -0.8662150346       -5.2862546207       -0.4886871365
 H          0.0892388346       -5.3531895967       -0.6053599928
 H         -1.0335423735       -4.5255365160        0.0958305354
 O          5.7175775206        0.3396035208       -1.2096238395
 H          6.2749554004        0.0661989851       -0.4666885484
 H          5.8002893039       -0.3638373874       -1.8965119147
 O         -5.8075691761        0.2519732063       -2.1113033803
 H         -5.1305418410        0.1734400023       -2.8042928858
 H         -5.7155638614        1.1424460062       -1.7420356055
 O          1.8901213703        3.4577755373        3.6523377178
 H          2.3881448615        3.9173742680        2.9601840096
 H          0.9761141298        3.7779442383        3.5867695757
 O          3.4883312692       -0.5792689003       -0.1550016177
 H          3.6978661834       -0.3799416905        0.7728748933
 H          4.2470654870       -0.1556812699       -0.6398591336
 O          1.9965817590        0.8337606656        3.4028958795
 H          2.9285112132        0.6780038231        3.1891696555
 H          1.9495363840        1.7851151339        3.6629149536
