  525
       -891.34238369
 O          1.3183447621        3.5586837928        1.9357559810
 H          1.7627621148        3.5956451774        1.0679772215
 H          1.1727200144        4.4649379859        2.2453881405
 O         -1.6167287730        7.3751169266        3.3853275916
 H         -2.3292653995        6.6995082130        3.4214479574
 H         -1.0697942903        7.2220796717        4.1723109738
 O         -5.1993465156        4.4972748781        5.1301870880
 H         -5.6677131760        5.2454332954        4.7552916093
 H         -4.9619964859        3.9254164896        4.3540858136
 O          0.1050988379       -0.6920733583       -0.7042875255
 H         -0.0372536036        0.1896367013       -0.3131744868
 H          0.6623179968       -1.1530677271       -0.0450131349
 O          1.5687318322        6.2844115978        0.0962142612
 H          1.4887359027        7.0212937078       -0.5290607613
 H          0.7178648524        6.2578441390        0.5859883132
 O         -0.1297144117        1.3427477571        0.9285454378
 H         -1.0029049357        1.0327466556        1.2274217580
 H         -0.2063054512        2.2888004392        0.7318258932
 O         -2.3633159130        2.9892439788        1.8828782968
 H         -2.6182585305        3.5271144921        1.1198838038
 H         -1.7912928254        3.5458939574        2.4560996255
 O         -2.5439647062       -0.4060956268       -1.3188856100
 H         -2.5899886930       -0.5171705800       -2.2828019076
 H         -2.4070261406        0.5512472984       -1.1834940228
 O         -3.3067544645        4.7717468469        0.0313375464
 H         -3.9642830197        5.4819718102        0.1284572519
 H         -2.6373727160        5.1469687654       -0.5557327007
 O         -4.4035122068        6.4068152375       -2.5990716202
 H         -3.6656952953        5.7567752441       -2.6569905053
 H         -5.2212934511        5.9069682637       -2.6416340966
 O         -0.7344129222       -1.0953125624       -8.8046641960
 H         -0.8081589898       -0.1352258333       -8.6928240267
 H          0.1530630603       -1.3360234271       -8.4950732685
 O          0.9468079845        0.0484942631        3.2657427189
 H          1.5772196177        0.7925632486        3.3550393592
 H          0.0793762429        0.4502893269        3.0891904358
 O         -2.2213686438       -1.1752351325        5.9299201968
 H         -3.0809710549       -0.9364289251        6.3020169311
 H         -2.3587590287       -1.2500187223        4.9623742786
 O         -2.4705249085        0.0794028560        1.3841636120
 H         -3.2710529514        0.6385603331        1.3020607823
 H         -2.4315271184       -0.4643037734        0.5864372905
 O          1.3159316086       -1.8084159204        1.3562324814
 H          1.2124681253       -1.1215580325        2.0426061871
 H          2.2686073650       -1.8646491781        1.1349022016
 O          3.8676161854       -1.9213146582        0.5867298835
 H          3.9262071942       -2.6207894085       -0.0886974294
 H          4.2934957756       -2.2654585448        1.3981172123
 O          2.5584951531        0.9936557731        0.8401739682
 H          2.7543905284        0.5802541047       -0.0241982571
 H          1.5971550997        1.1293093813        0.8842423726
 O         -0.0620998719       -5.6989231494       -2.1741791976
 H         -0.3544443122       -6.4803761341       -2.6760611740
 H         -0.7035758057       -5.5286348774       -1.4779301484
 O         -6.6150282957        3.6892439060        1.5816219458
 H         -7.3425102393        3.0808958781        1.7851862582
 H         -5.8318423628        3.2994197912        2.0428583495
 O         -1.7271872493       -4.8307410468        3.6040343780
 H         -2.5872666780       -4.7128203327        3.1580474528
 H         -1.8112921341       -4.3951415209        4.4817279462
 O         -3.1236477902       -2.5286254382        0.4465406721
 H         -3.1247774075       -2.5572937244       -0.5178837727
 H         -2.2011765904       -2.7075015158        0.7221009381
 O          3.9329929030        0.0008810337        2.9189116808
 H          3.4440000557        0.3621951294        2.1556319056
 H          3.4103651291       -0.7594077840        3.2259560631
 O          2.7577087513       -6.0132235717       -1.5207675301
 H          2.4479913883       -6.1886993502       -2.4195978232
 H          2.6390815310       -6.8818279871       -1.0754013195
 O         -0.5649245635        3.8021415468       -0.1167794787
 H         -0.6579480741        4.5594414934        0.4830024890
 H         -0.1656458355        4.1288716670       -0.9449641399
 O         -3.1584209020       -0.2421232697       -3.9078198530
 H         -3.7002985060       -0.9318030454       -4.3191689534
 H         -2.3294662071       -0.2539658830       -4.4264531983
 O         -0.2892382463       -0.6190100788       -3.2907260522
 H          0.5088016753       -0.8648190229       -3.7847712407
 H         -0.0523416622       -0.6733961235       -2.3366615033
 O          1.7800472207       -2.4968516555       -1.8472085577
 H          1.5721285307       -3.0203045102       -2.6299270201
 H          1.6297909909       -3.0727189959       -1.0834820136
 O          5.0590252950        2.2847799075       -1.0329565003
 H          5.2892032972        1.3475553564       -0.8829170583
 H          4.6917390911        2.5842882855       -0.1716097475
 O         -0.9820231030        4.3008493490        3.6928558740
 H         -0.3685509009        5.0279330213        3.4987043015
 H         -0.4635377160        3.6359352064        4.1977949852
 O         -2.4569006752       -1.6939485439        3.3370159226
 H         -2.4143227435       -0.9358723964        2.7048757292
 H         -2.9878402853       -2.3795363830        2.9246006887
 O          2.4828653057        3.8477703953       -0.4600593438
 H          2.0372302301        3.1428034978       -0.9877145084
 H          1.9640742540        4.6661412910       -0.5295597493
 O          1.3349780228        1.9747828096       -1.8430883935
 H          1.9576842285        1.7146375834       -2.5298898106
 H          0.4746719294        2.0580480671       -2.2867145943
 O          2.3996777974        2.2274099738        3.8375927282
 H          1.8210666783        2.4729315667        4.5836390482
 H          2.0179145149        2.7216022319        3.0636388707
 O          3.2150262976       -0.2650564929       -1.4832382828
 H          2.7206054475       -1.1042878979       -1.4668175812
 H          2.9284743739        0.1592850757       -2.3061003110
 O         -1.8403735437       -5.3526840271       -5.0627197046
 H         -1.6810769163       -4.5278457251       -4.5545985901
 H         -1.3021289187       -5.2657251512       -5.8565591179
 O          0.2117154143        4.6831445164       -2.4902896089
 H          0.5722805622        4.0279365909       -3.1200421498
 H         -0.7236485225        4.7887163032       -2.7347138121
 O          4.6480951982        3.4246109329        4.4153355817
 H          4.9953193291        2.9212462251        5.1530629545
 H          3.8491666180        2.9170790223        4.1045497627
 O          2.8408936627       -7.2446426758        4.6328867569
 H          2.7831733331       -7.6198427545        3.7274147527
 H          1.9518991067       -7.2542587873        4.9896449033
 O          2.8948563434        0.7135351319       -7.6000529421
 H          3.5232706953        0.3422470540       -6.9339313220
 H          3.1582346710        1.6347796715       -7.7029713449
 O          8.0348852023       -2.0479143675        2.2205430127
 H          7.8241057744       -2.9471707805        2.4899536935
 H          7.6813887639       -1.4664508193        2.9039657742
 O          5.7192175842       -0.1762946603       -0.1156482446
 H          5.9793355147        0.2449552159        0.7237908722
 H          4.9336938102       -0.7372394932        0.0917680595
 O         -5.0687951697       -0.7982630163       -0.8560534594
 H         -5.4830057872       -0.7019564812       -1.7235473985
 H         -4.0939452930       -0.7202264663       -1.0157420512
 O          0.0183172557       -2.4114225070        4.1736540310
 H         -0.0776368852       -2.3834620735        5.1434294013
 H         -0.8168062290       -2.0888165797        3.7869540671
 O         -3.6028638167       -5.2615150953       -1.5984290187
 H         -3.7508008247       -4.3070911670       -1.7721801269
 H         -2.8874374012       -5.2838932317       -0.9204227102
 O          0.8663080716        3.4498786468       -7.5521500140
 H          0.5407674504        4.2006733571       -7.0434022562
 H          1.8063122035        3.3669537663       -7.3226685769
 O         -2.4633137940        4.6388593504       -3.2278739759
 H         -2.3010682288        4.9909663745       -4.1306591320
 H         -2.8389753437        3.7555179796       -3.3687633335
 O          5.4886980451       -0.4526158381       -2.9375403322
 H          6.3113155650        0.0139683083       -2.6991777397
 H          4.8679293187       -0.3224710156       -2.1937973513
 O          2.4460041771       -4.1447926403        6.6649477571
 H          1.9176047278       -4.9390331503        6.8017136804
 H          2.9259121698       -4.2906168641        5.8333221762
 O         -4.0022973101       -4.0890741843        2.3553538172
 H         -4.7369224266       -4.7049653904        2.1651370458
 H         -3.8072198673       -3.6409664499        1.5048693879
 O         -5.6685518557        2.0395813308        6.3294309177
 H         -6.3475673441        1.6783504901        5.7304330625
 H         -5.6162011225        2.9843143880        6.1127873202
 O          4.5797196989       -6.2742451169        1.1996566720
 H          4.8778907377       -6.4397624656        0.2919685561
 H          5.3431294340       -5.8715091467        1.6710939799
 O         -6.8227104333       -1.9469845529        4.9658100047
 H         -7.1484868328       -1.0386591591        4.8307305262
 H         -7.0536627059       -2.4194605487        4.1502172693
 O          6.6659359469       -4.1516755392       -0.3249401067
 H          5.7705614304       -3.9320978835       -0.6681206180
 H          7.1769235068       -3.3135046667       -0.3973923178
 O          1.2149754152       -4.4475247869       -0.0254213896
 H          1.8575066190       -4.2042884802        0.6861198621
 H          1.6839503011       -5.0647941580       -0.6250246268
 O          6.3587855517        1.2759004034        2.0827296008
 H          5.5503306115        1.8243463489        1.9708506787
 H          6.1708298494        0.6503224164        2.7896374360
 O         -6.0705621495        6.1220852588        2.6071398681
 H         -5.9551039063        6.6951859478        1.8434064979
 H         -6.3898992963        5.2616632072        2.2607604927
 O         -0.8366948562        6.1326902917        1.1550713324
 H         -1.0376494449        6.6368663294        1.9723997544
 H         -1.2707510116        6.5826586472        0.4103998972
 O          1.1660542312       -4.7918428356        4.0024244741
 H          0.8158689798       -5.1800303949        4.8261078263
 H          0.7440134117       -3.9101237297        3.9508814188
 O          2.7130877510       -2.0504349538        4.2049821367
 H          1.7597530776       -2.0686995337        4.0158112419
 H          2.8126043532       -1.8415856324        5.1425779044
 O         -1.7291351413       -5.5434369073        0.2169699650
 H         -1.3610102754       -4.7416662989        0.6465084225
 H         -2.2953558141       -5.9856846221        0.8818653629
 O          1.7127853425        8.4625279984        2.1384904295
 H          2.5534609848        8.3423933476        1.6341561903
 H          1.8854975109        9.1124462954        2.8181792569
 O          1.4994346762        3.3965780865       -4.4149115038
 H          2.3963822953        3.2946649322       -4.0336048826
 H          1.3003386062        2.5712072515       -4.8762279339
 O         -1.4919233147        1.1698219983        8.0999837821
 H         -1.9740485653        1.3040950160        7.2510173452
 H         -2.0994925447        0.7007232269        8.6700088486
 O          1.3254688459        0.0954832678        7.9923582991
 H          0.6861622944        0.4682841071        8.6027079935
 H          0.8687463324        0.1489169724        7.1059480317
 O          1.7535441076        4.8654200021        6.8879573338
 H          1.0206668024        4.7428659334        7.5022073893
 H          2.1862838117        3.9916586032        6.8537686608
 O         -5.2421755167       -1.4045830360        1.9064443854
 H         -5.8251334610       -2.1600336803        2.1045451204
 H         -4.5648958733       -1.7038355945        1.2806715366
 O          3.8722007869        3.1310409574       -3.2510859208
 H          4.1709912938        2.7635125631       -2.3929729965
 H          4.4032120934        3.9368507250       -3.3982690422
 O         -0.9754836613        1.7105172136       -8.6386670370
 H         -0.9709911114        1.9485004018       -9.5652340365
 H         -0.3454409818        2.3216552829       -8.2088021707
 O         -1.7756403396       -2.7626632229       -6.9963937507
 H         -1.5912866396       -2.2898641300       -7.8312378749
 H         -1.0318984467       -3.3830078492       -6.8756324565
 O          3.8674684280       -2.4804168757       -3.7491474193
 H          4.3681320098       -1.6871870225       -3.5034672280
 H          3.0321627832       -2.1485121177       -4.1308813558
 O         -2.9281504538        1.8949489239        5.9503913464
 H         -2.7468644257        2.8571403082        5.8844951715
 H         -3.8931550051        1.8272600588        6.0501220203
 O         -4.6421071798        0.2935523066        3.8178555104
 H         -4.7325705303       -0.3529194382        3.0880194587
 H         -4.4053488910       -0.1743640623        4.6295516471
 O         -1.5396477453        1.0550399314        3.7201867558
 H         -2.0622505807        1.2653105862        4.5063624634
 H         -1.8942142369        1.5974459556        3.0095829565
 O         -4.6459775177        2.8736692838        3.1425628226
 H         -4.6688017315        1.9294617550        3.3722303657
 H         -3.7837151508        2.9801447980        2.6702218264
 O         -8.2601677215       -2.5518529937       -0.0230858632
 H         -8.5358623534       -2.4946122354       -0.9458452986
 H         -7.3347786690       -2.9178714131       -0.0715221920
 O         -7.1788954407        0.7317892286        4.4434096044
 H         -7.7045286250        1.1466125060        3.7426261538
 H         -6.2730525425        0.6258074204        4.0690540343
 O          6.4027361936        5.7268049712        0.8060693432
 H          6.6696487985        6.5799013886        1.1450169774
 H          6.4714974885        5.0909896968        1.5650564624
 O         -0.9877240660       -3.1131077818       -1.1781076029
 H         -0.2572028682       -3.6054661037       -0.7818482153
 H         -0.7701223327       -2.1714536316       -1.0400157717
 O         -1.8575992687        6.8269193732       -1.2506966867
 H         -2.1866710736        7.7198004743       -1.1367793471
 H         -1.3004753171        6.8446202831       -2.0500856113
 O          0.2991270276       -4.4473047665       -6.5333224757
 H          0.5772578128       -4.3749958977       -5.5937156125
 H          1.1033232461       -4.3963916897       -7.0555373788
 O         -0.8688523961       -7.5988214131       -3.8956385136
 H         -1.5960285204       -7.9945778399       -3.3925564381
 H         -1.2638876773       -6.8722857781       -4.4176625009
 O         -3.4640830926        5.5380227302        2.9483169711
 H         -4.4021918449        5.8010736225        2.9154903373
 H         -3.2192902779        5.2908551399        2.0497445170
 O         -3.8615156190       -2.7607388603       -2.4067546335
 H         -4.5873058866       -2.4253179361       -2.9354959944
 H         -3.0644889363       -2.7864390334       -2.9840857278
 O          3.6418705125        5.5001771760        1.7706803729
 H          2.8167081964        5.6942584463        1.2862905074
 H          3.4825845943        5.6527637753        2.7086904677
 O         -4.9834713973        2.8245641448       -1.6022590954
 H         -4.7647182913        2.7653898332       -2.5460400993
 H         -5.4232779893        3.6813050394       -1.4188586823
 O          4.2017108048       -4.9214177792        4.5711055356
 H          3.7241755136       -5.7766764158        4.6251213565
 H          4.9649429064       -5.0934230080        4.0134045925
 O          1.5293858088       -1.7173472376       -4.9151750448
 H          1.5390397570       -1.6656927475       -5.8906545386
 H          1.1893374635       -2.5945478778       -4.6824799270
 O          4.3264276682        2.8649672354        1.4333771111
 H          4.0687148782        3.7905209359        1.5860740329
 H          3.5192073252        2.3190366638        1.3228751359
 O          0.8070694037        1.0816817131       -5.9656362647
 H          1.4899531972        0.9593138521       -6.6594001328
 H          0.2118688700        1.7966391492       -6.2554802985
 O          4.4814950933       -0.2544502403       -5.7356816527
 H          4.9950199248       -1.0731114079       -5.8403434078
 H          5.0910458645        0.4774634487       -5.5122162217
 O         -7.1654613522       -3.2279458064        2.5312295046
 H         -6.8585534182       -4.1343480839        2.3563637505
 H         -7.8317179696       -3.0395620324        1.8612900889
 O          6.7462710697        4.0352695374        2.7904611351
 H          6.9751283205        3.1442168646        2.5001127848
 H          5.9564114064        3.9227524504        3.3515902354
 O         -7.3802198460       -0.1492765697        0.7026212415
 H         -6.5302912187       -0.4253410496        1.1015206245
 H         -7.8290719385       -0.9875087032        0.4563784386
 O         -4.7594249802        1.3263294255        0.8034852762
 H         -5.0155690119        0.5726227039        0.2431557585
 H         -4.7869701031        2.0985723177        0.2339411614
 O         -3.1782564043        1.0980723877       -6.8471415609
 H         -2.5464492745        0.4267915634       -6.4816068321
 H         -2.8763410065        1.2461351873       -7.7480621471
 O         -1.5435330053       -3.0185777212       -3.6900735008
 H         -1.1704527935       -2.1311277953       -3.8364533030
 H         -1.2409236966       -3.2277812510       -2.7695314745
 O         -4.4322036195       -8.6065634777       -0.0321204021
 H         -3.9889642790       -8.1199405822        0.6891004409
 H         -5.1752557741       -8.0411892966       -0.2856103265
 O         -6.1070850568       -5.6791664807        1.9453159472
 H         -6.0590444793       -5.9389984165        0.9948645014
 H         -5.9510796716       -6.4591110215        2.4817736023
 O          1.0934717173        5.9802406406        3.1325971637
 H          1.7768425913        5.8979175264        3.8239688242
 H          1.1506940194        6.8889563999        2.7971425999
 O          0.0965892452        0.1378099477        5.7519142381
 H          0.4261131255       -0.0948587964        4.8533777360
 H         -0.7807756060       -0.2773816367        5.8564337043
 O         -2.8197285134       -7.9395106629       -2.0327841414
 H         -3.4160157155       -8.3745269122       -1.3808399354
 H         -3.0987490277       -7.0128068517       -2.0312638144
 O          7.6557543742        2.8686739458       -3.5648027651
 H          7.6677907272        3.3175004631       -2.7029949808
 H          7.8854811729        1.9551887090       -3.3357634325
 O         -0.8316553236       -3.3881746479        1.5292287947
 H         -0.9219606331       -3.7885196033        2.4095150750
 H         -0.0032998168       -2.8712190197        1.5077762990
 O          5.4815121479        2.0995047886       -5.1018345891
 H          6.3383052257        2.3682108223       -4.7344691222
 H          4.8334888799        2.2982177235       -4.3885014366
 O         -2.8109846313        8.5469559654        1.1598995314
 H         -1.9670608105        8.8328770771        0.7705097462
 H         -2.5797878992        8.3170166559        2.0705364701
 O          1.6733273967       -1.7482812511       -7.5851413601
 H          2.2077937291       -0.9764986536       -7.8160144605
 H          2.2709255755       -2.5188807044       -7.5368676131
 O          0.2181001981       -2.5552343370        6.8600534985
 H          0.4234487119       -1.7954542909        7.4101938966
 H          0.9991171596       -3.1327182985        6.8413915919
 O         -0.3797867280        6.4990887741        5.6960665264
 H          0.4119210754        6.0220481797        5.9731005460
 H         -1.1318965149        5.9608381470        5.9711511186
 O          5.6985171304        5.0872186687       -3.6242148142
 H          5.5770881442        5.3116152165       -2.6853465881
 H          6.4876094032        4.5389867955       -3.6918618501
 O          6.8682661605       -2.8013583913       -3.1439810730
 H          6.3477274217       -1.9740687482       -3.1106843276
 H          7.4477258414       -2.7608767576       -2.3789807060
 O          6.4686667708       -0.7964889888        4.3029340601
 H          5.9214050340       -0.1174442279        4.7367352355
 H          6.4355176749       -1.5542171092        4.9191628148
 O          6.4725836358       -4.7445364752        2.2784684050
 H          6.7051147424       -4.5428254026        1.3485826562
 H          5.9246642068       -3.9746630819        2.5486133799
 O         -0.7117116647        3.7924570688        7.7337970281
 H         -0.9628661932        2.9124918255        8.0579469538
 H         -1.4779566966        4.1344512054        7.2494124634
 O          5.0216850397       -2.6254619270        2.8739213553
 H          5.4730453221       -1.8522664030        3.2580447025
 H          4.1936066596       -2.7458052000        3.3678894786
 O         -8.2263309971       -2.3580253693       -2.8831524798
 H         -7.5004529685       -1.7028059769       -3.0458437766
 H         -8.9205378114       -2.1536622894       -3.5077811871
 O          2.5817028695        6.0917761198       -2.9018577077
 H          3.2771643393        5.8305735385       -2.2738985709
 H          1.7766333629        5.5869766209       -2.6872180845
 O          4.2444841833       -3.7544681947       -1.3432662431
 H          3.7920824877       -4.6139543311       -1.3753866517
 H          4.0824385264       -3.3257310217       -2.2059967892
 O         -2.5632823656        4.5646015131        5.7822832871
 H         -2.1105304969        4.5531389566        4.9019846792
 H         -3.5025369010        4.7458243600        5.5937989419
 O         -4.0409552629       -2.4843821483       -5.3406306414
 H         -4.2593045966       -3.3744711232       -5.0106016548
 H         -3.2817000306       -2.6087380715       -5.9317720035
 O          0.3005168737        2.7582557692        5.3949165281
 H          0.1077814624        3.1791818128        6.2480049042
 H          0.0613740930        1.8134068021        5.4891217079
 O         -6.2940052650       -0.6088990553       -3.3024244961
 H         -6.0611349591       -0.3404836497       -4.2113603558
 H         -6.7142349545        0.1696087421       -2.8544486684
 O         -1.6893223299       -7.2015511256        4.8039950010
 H         -1.4132057091       -7.9061422888        4.2074974958
 H         -1.6476012871       -6.3749054019        4.2643780719
 O         -4.7609240780        7.0580467215        0.0736795309
 H         -4.5816013424        7.1446522844       -0.8783083121
 H         -4.1117983699        7.6467054317        0.5163916986
 O          0.7371796629        5.6803457434       -5.5591392330
 H          1.5689560940        6.0912451777       -5.8113317316
 H          1.0019475139        4.8457016970       -5.1056823362
 O         -4.8285743537       -0.6640810111        6.4427043491
 H         -5.5584250449       -1.2114314818        6.1174106417
 H         -5.2038049384        0.1942994616        6.6744657901
 O         -2.1837540989       -3.8908013982        6.0408472219
 H         -3.1444511253       -3.9265547600        5.9060949251
 H         -1.9799459371       -2.9515582561        6.2083618751
 O          3.2590550074       -1.5123661738        6.8916445940
 H          2.6868533381       -0.9348064317        7.4220713299
 H          3.0204912865       -2.4236787682        7.1164896015
 O         -5.8590231969       -6.3357535773       -0.6207706621
 H         -6.5041725881       -5.9437306527       -1.2202075756
 H         -5.0021149065       -5.9401846374       -0.9030476386
 O         -3.2261582236       -7.0337293912        1.8579066876
 H         -2.4657199151       -7.6000463679        2.1143741048
 H         -3.6997631273       -6.8296267929        2.6879757827
 O         -1.3518359826       -0.4616684569       -5.7829570345
 H         -1.3734833907       -1.3559666066       -6.1814847969
 H         -0.4589478690       -0.0762612176       -5.8652878818
 O         -8.4324356353        1.7214864626        2.1966426504
 H         -9.3637801396        1.7650639321        1.9860642878
 H         -8.0412159231        1.0155360695        1.6176987714
 O         -0.8960609407        1.9335050807       -3.3631767944
 H         -1.5481568696        2.0522725757       -2.6418455607
 H         -0.7225771888        0.9652228976       -3.4257157523
 O         -3.8810190477        2.3362655231       -4.0511639909
 H         -3.6236250279        1.3939392029       -3.9198526944
 H         -4.1731788771        2.3922755285       -4.9619213203
 O          0.0324701699       -5.6868544386        6.2828228288
 H         -0.5755791780       -4.9551161307        6.4705142109
 H         -0.5487681751       -6.3967667461        5.9539693135
 O          0.5433613253       -6.2204733369        1.8973504556
 H          0.6107548319       -5.5993755526        1.1439043051
 H          0.7048373345       -5.6783246972        2.7056509694
 O          7.1942855621        3.8661981507       -1.0689719839
 H          6.3641928320        3.3309855003       -1.0802273242
 H          7.0334357351        4.6047783848       -0.4638733230
 O          7.9406887036        0.4613257269       -2.2519339880
 H          8.3810704527       -0.3852273547       -2.1441229088
 H          8.0549570811        0.9057956945       -1.3752834743
 O         -4.7102351290       -3.8716082563        4.9732383505
 H         -4.5110018794       -3.7553331771        4.0271857506
 H         -5.4676994865       -3.3042708931        5.1578923725
 O          2.7890671566        2.3208253460        6.9229237968
 H          2.3072935217        1.6450138206        7.4173656992
 H          3.3918409209        1.8389230709        6.3325261243
 O         -7.2086726446        1.2289075338       -1.6845560185
 H         -6.4490502713        1.8295551328       -1.5763761368
 H         -7.2937825562        0.7610168587       -0.8330016064
 O         -1.9829847091        5.3336416192       -5.7668690019
 H         -1.0997062237        5.7193072419       -5.8420158378
 H         -1.8195803219        4.3706012486       -5.9171899244
 O         -5.7756326893       -3.3309384505       -0.2673787710
 H         -5.4297198604       -2.4407862053       -0.4921442060
 H         -5.8919408547       -3.8037059363       -1.1041371665
 O         -6.3908239308        4.9163694588       -0.8071603789
 H         -6.6007988849        4.4182937256        0.0084450943
 H         -6.0197946616        5.7505760567       -0.4979839062
 O         -0.2779281620        8.9675891137        0.2667322621
 H          0.2722975145        8.9197426620       -0.5243576192
 H          0.3266797936        8.8178549652        1.0113183170
 O          1.0867370251       -4.1857521995       -3.9721322419
 H          1.9367021397       -4.6472648202       -4.1561110175
 H          0.5968786014       -4.7312884946       -3.3132570279
 O         -1.3262327913        2.8061172065       -5.8070638740
 H         -2.0513304321        2.2643244628       -6.1588186240
 H         -1.1990519149        2.5296726393       -4.8682377878
 O          5.4786447985       -2.7962520142       -5.8145122448
 H          6.3420736262       -3.0686559656       -5.4996811343
 H          4.8887926853       -2.8725887989       -5.0246738341
 O         -0.6511257781       -8.0570655031       -0.3647604122
 H         -1.3494115535       -8.2076382179       -1.0246419116
 H         -0.7927651571       -7.1447869498       -0.0630488320
 O          8.3220413001        1.6904454508        0.0690920358
 H          8.0650701616        2.5798459292       -0.2395254522
 H          7.7527565109        1.4821817425        0.8204864347
 O         -5.4684109526       -0.2007599507       -5.8604622754
 H         -5.1228397269       -1.1064025236       -5.9013883903
 H         -4.7730340737        0.3500915192       -6.2519319420
 O         -0.5566898282        7.2871297742       -3.5838421381
 H         -1.3818179937        7.5793380732       -4.0263847086
 H         -0.0664337991        6.7395831008       -4.2180144828
 O         -4.3714306152       -6.5899947533        4.2663499453
 H         -4.5764315782       -5.7176553488        4.6373442213
 H         -3.5848164360       -6.9085951107        4.7377069323
 O         -0.9713359363       -8.3584828179        2.3841343710
 H         -0.3997488997       -7.5722517429        2.2417009887
 H         -0.8643845450       -8.8723639714        1.5761449848
 O         -2.9850760176        7.6981258780       -4.6387389930
 H         -3.5907723297        7.4141177902       -3.9355898239
 H         -2.9307876529        6.9630493183       -5.2627742104
 O          1.3481575391        8.2297310502       -1.8947719018
 H          2.0289227935        7.6857148782       -2.3315685160
 H          0.5775574193        8.0984385035       -2.4738439920
 O          4.0157667506        8.0077484668        0.8333149455
 H          4.1464001895        7.0885999081        1.1443429207
 H          3.8673690095        7.9459927262       -0.1124540065
 O          3.5109469990        3.3104145593       -6.6852210200
 H          3.4900267354        4.1950549510       -6.2726435065
 H          4.2555330847        2.8632714109       -6.2502225821
 O          3.5876882060        5.7048911212       -5.3623314804
 H          3.1755056941        5.8344736964       -4.4814157104
 H          4.5304198399        5.6982327868       -5.1657483915
 O          2.9420344680       -4.2244761866        1.9060261005
 H          2.5857804278       -4.3924533035        2.7874628427
 H          3.5268366186       -4.9654372094        1.6756228043
 O          3.2295754581        5.6953091058        4.7099360546
 H          2.7999182741        5.6128370582        5.5727576856
 H          3.8246281172        4.9204613496        4.6555111334
 O          3.2163791714       -3.9027457301       -6.9775803358
 H          3.1608708761       -4.5418488147       -6.2444396639
 H          4.0902971633       -3.5021719958       -6.8546570152
 O          2.6271201525        0.6819004720       -3.9454792698
 H          1.8673163259        0.6015857801       -4.5365102698
 H          3.3747163368        0.3210432746       -4.4469003977
 O          1.9177316534       -7.6832946208       -3.5922047370
 H          2.0530948335       -8.2650827192       -2.8368512925
 H          0.9776233312       -7.7500183188       -3.8175663296
 O         -4.4110100406       -5.0280757531       -4.3361383858
 H         -4.1540626470       -5.2017922912       -3.4186732649
 H         -3.6408090764       -5.3251489323       -4.8483292184
 O          7.8064805335       -1.7880606207       -0.5106439470
 H          7.0305960670       -1.1773434479       -0.4576560052
 H          8.1697447149       -1.7716487493        0.3885391791
 O          3.2137058085       -5.5024980549       -4.7271020778
 H          2.9678174253       -6.4209806849       -4.5544043631
 H          4.1040366002       -5.3579780000       -4.3216752904
 O          6.0259519816       -6.5675297728       -1.1791669356
 H          6.4620369872       -5.7404358665       -0.8816012463
 H          6.6934944372       -7.2509914864       -1.2052646835
 O          4.4312171020        0.6976774353        5.3993241734
 H          4.0995442945        0.6161380220        4.4685915568
 H          4.0927250459       -0.0688386230        5.8753407026
 O          2.6022281645       -7.9027272643        2.0175332053
 H          1.8364810741       -7.2890741273        1.9325936248
 H          3.3836616149       -7.3885777285        1.7444229221
 O         -6.6346129425       -4.5519090237       -2.6001189828
 H         -6.1282175099       -4.7038676752       -3.4051781889
 H         -7.2893461000       -3.8581407269       -2.7863337588
 O         -2.3662733240        2.2281003429       -1.2065359220
 H         -1.7599961348        2.8011474666       -0.6910237146
 H         -3.2526109987        2.6173561801       -1.1729750649
 O          2.0175181228       -8.3999088968       -0.6476570561
 H          1.0426528245       -8.3207025113       -0.6074719386
 H          2.2974297480       -8.5087658593        0.2763131218
 O          5.5670269904       -5.2021397692       -3.5959801721
 H          5.6125844667       -5.7248041038       -2.7819031100
 H          5.9933027195       -4.3464008650       -3.4065952674
 O          4.5457397844        5.3695331048       -1.1544610802
 H          5.1142190278        5.5824259321       -0.3981736683
 H          3.9412478300        4.6660580326       -0.8362364595
 O          5.6419516632       -2.8186718188        5.8883893041
 H          4.9772836145       -2.3565046073        6.4088067922
 H          5.1889117447       -3.5685241339        5.4754884234
