  101
       -167.54318494
 H         -3.0407932984        0.1347084603       -0.0554555145
 C         -1.9574591959        0.1179173685       -0.2209661685
 H         -1.7164470882        0.7401100451       -1.0833578003
 C         -1.4956499041       -1.3156341182       -0.5004895814
 H         -0.4057304991       -1.3350646189       -0.4733313365
 H         -1.8230372899       -1.5839698761       -1.5056057813
 N         -1.9974414759       -2.3304460669        0.4146018567
 H         -1.6376635125       -2.1865920398        1.3568336006
 H         -3.0103794611       -2.2997856795        0.4505541005
 O         -1.2920203399        0.7093060908        0.8799664025
 H         -1.5551426216        0.2438593160        1.7091390466
 O         -0.8188872429       -4.5649102356       -0.4480678844
 H         -0.1092233987       -4.6567304941        0.1968881181
 H         -1.3591977621       -3.7945420241       -0.1181844154
 O         -2.2813080697        0.1960535807       -3.5523507102
 H         -3.0294195292       -0.2023041700       -3.0912612271
 H         -2.2981864870        1.1384399046       -3.3229892108
 O          6.1145449132       -0.9009157761       -0.1858261642
 H          5.6523866667       -1.5185621699       -0.7765971760
 H          6.0627161007       -0.0371820398       -0.6283443996
 O         -5.0859229516        0.3098475062        2.3113815525
 H         -5.7396945318        0.4442322375        2.9985231029
 H         -5.0834028978        1.1254183988        1.7595706041
 O          0.3151735062       -0.5786315265       -2.9460872767
 H         -0.5648132873       -0.3025231988       -3.2518213530
 H          0.3106974639       -1.5423598752       -2.9571562219
 O          0.5980703203        2.6677334192        0.1786971002
 H          1.4353528216        2.5182800947       -0.3047015359
 H          0.1326143543        1.8196871922        0.1993127214
 O         -2.5427792653        2.8413060726       -2.6702196796
 H         -2.5202525171        3.4245999312       -3.4295493320
 H         -2.0866149081        3.3466727446       -1.9344422215
 O         -5.0925032633        2.4920000397        0.7851408295
 H         -5.7206880817        3.2122901050        0.8428198412
 H         -5.0190897712        2.2690998650       -0.1932935383
 O          5.4918166843        1.4798002426       -1.4562214890
 H          5.9600099597        2.3129441608       -1.4962444733
 H          4.5464090053        1.6963732212       -1.2539056230
 O          2.2010287729       -0.3164151403        0.1946632928
 H          3.0329350087       -0.3749337017        0.7254219565
 H          2.1345707780       -1.1571938418       -0.2995908305
 O         -4.6080408569       -0.7832965243       -2.1107640552
 H         -5.1516187654       -1.3142285704       -2.6945111709
 H         -4.7017767302       -1.1590402934       -1.2161663046
 O          2.8442022377       -2.1884521385        3.2152621551
 H          2.2265357515       -1.4298728576        3.0823801030
 H          2.8191370126       -2.3915501533        4.1502232171
 O          0.2033878430       -3.4637724310       -2.6001149129
 H          0.2946535575       -4.1146453656       -3.2960702930
 H         -0.2713938739       -3.9137881156       -1.8481473750
 O          2.1071645234       -2.7869139436       -0.8040345445
 H          1.7638542200       -3.1920551262        0.0207882151
 H          1.4561710115       -2.9749541531       -1.5065643972
 O         -4.9123898748        1.9488601580       -1.7319225056
 H         -4.8542268702        0.9948973252       -1.9050649162
 H         -4.0817994307        2.3293007411       -2.0868087335
 O         -1.4739662390        2.3055843914        3.9369213840
 H         -1.8616485503        2.8178351426        3.2065685143
 H         -0.5178990102        2.3591367369        3.7949981183
 O          1.1380455883        2.3988389285        2.8455087063
 H          0.8135233558        2.6526957930        1.9588644939
 H          2.1081770448        2.4792392958        2.7559316520
 O          1.1650102701       -3.6843808635        1.5654683017
 H          0.3756007980       -3.3116164987        1.9881400648
 H          1.8983650978       -3.3553359243        2.1135992085
 O         -0.6914810455       -2.1867397852        3.0453517516
 H         -1.4577072756       -1.7458505410        3.4312762457
 H         -0.0421013905       -1.4596366425        2.9396852682
 O          3.6676710805        2.2951681310        1.8703242073
 H          4.0083781908        1.3899293912        1.9441158785
 H          3.4967424947        2.4334232594        0.9322684381
 O          4.5567279304       -2.4954361847       -1.8384301639
 H          3.6701037671       -2.6112495821       -1.4351937102
 H          4.8310615461       -3.3544728489       -2.1587352882
 O          2.9013114987        1.9122471051       -1.0255174784
 H          2.6389066228        1.8115025636       -1.9867553586
 H          2.6495698609        1.0424361039       -0.6337925201
 O          4.3672226103       -0.3984100780        1.7060023651
 H          5.1126988749       -0.6347068935        1.0990270065
 H          4.1936845971       -1.1538304866        2.2822223669
 O         -1.4153130583        4.2012201873       -0.7588358745
 H         -0.5440200773        3.8056922514       -0.5656471530
 H         -1.9084870340        4.0600525041        0.0696425680
 O         -5.0388967579       -1.7004258946        0.4502252523
 H         -5.0340640113       -1.0037866969        1.1349997102
 H         -5.6382387570       -2.3837874661        0.7516366770
 O          4.5788331964       -0.2099228210       -3.5050224656
 H          4.5188090838       -1.0430871981       -3.0156130756
 H          5.0620808606        0.3949940653       -2.9221151737
 O          2.2728635219        1.2640190395       -3.4558860327
 H          1.5489509182        0.6236233157       -3.3297602527
 H          3.0613703097        0.7274924844       -3.6669422792
 O          1.0937673588       -0.2528512700        2.6171372244
 H          1.3066933133       -0.2558769061        1.6597085565
 H          1.0610139760        0.7012514497        2.8556133657
 O         -2.4209229542       -0.0739804069        3.2004576927
 H         -2.0861224148        0.7544751551        3.6199691510
 H         -3.3544007380        0.0726457310        2.9974310287
 O         -2.4962349493        3.0968984473        1.4905117352
 H         -3.4323047977        2.9244117302        1.3017667522
 H         -2.0131162824        2.2895495035        1.2195703071
