  609
      -1033.90042187
 O          0.7842350044        3.3553458706       -3.7175951064
 H          1.5613390216        3.9336582857       -3.7074835422
 H          0.4666582419        3.3869129953       -4.6385709369
 O         -1.2836755435        2.5598030362       -1.0004945265
 H         -0.5584550154        3.2023651623       -0.9117299468
 H         -2.1181371846        3.0153008480       -0.8139104421
 O         -3.7445141459        3.7156271526       -0.7549336754
 H         -4.0985755371        3.8859570297        0.1269730350
 H         -3.9532043989        4.4935227351       -1.3008298791
 O         -5.9147184206        5.5404575668        3.6996808368
 H         -6.6658502943        5.7914015198        3.1038227139
 H         -5.2589718971        6.2621551277        3.6308769940
 O         -3.0386913159        0.2286385754        5.0721841499
 H         -3.5046331326       -0.2035693777        4.3308836636
 H         -2.1714590162       -0.1946440919        5.1254455913
 O          1.7257965838       -3.5470580907        1.3297950674
 H          2.5440635329       -3.0695912761        1.1487479574
 H          1.3272763352       -3.7656477155        0.4564558237
 O         -1.6013931805        2.1125956569        6.2905809284
 H         -1.0243006124        1.9917160385        5.5182101629
 H         -1.4476640034        1.3470852244        6.8631669493
 O         -1.7322213875        1.6862749536       -3.4521559698
 H         -1.5020503783        2.1121980052       -2.5950042089
 H         -2.2978084398        0.9224030176       -3.2127636563
 O          0.2427533014        0.7700379649       -4.9227529009
 H          1.0910392734        1.0190233631       -4.5227750399
 H         -0.4554610032        1.2213441394       -4.3940848004
 O         -2.0709192053        3.9919854743        1.5357650626
 H         -2.0914120914        4.4254442398        2.4055888928
 H         -1.1445102720        3.6723376108        1.4644499436
 O         -4.3397575478        4.1399272297        5.6330256146
 H         -3.6550299510        4.6554544724        6.0738711907
 H         -4.8993268456        4.7525177016        5.1371800105
 O          2.3192946024       -6.7790918531       -3.9589847741
 H          2.0812258982       -6.2037735910       -4.7001320924
 H          1.4586766734       -7.0328786197       -3.5800139296
 O         -4.1135473658        5.4364843843       -5.5762784764
 H         -4.0487319291        4.7034084438       -4.9177895857
 H         -4.9569630344        5.8569679426       -5.3721372233
 O         -6.6997044972        2.8255471423        0.3723903562
 H         -6.0622550145        3.2398535614        0.9770381026
 H         -7.5768662446        3.1040944891        0.6521438729
 O         -5.1795164351        1.1592391624       -4.4107026511
 H         -5.9536627392        1.6566763634       -4.7048562559
 H         -4.5891842673        1.8499869026       -4.0637182955
 O          2.4375651645       -2.1194903612       -1.0394038346
 H          2.4672985045       -1.7879984327       -1.9617478071
 H          2.9070926719       -1.4934709293       -0.4691905402
 O          0.0405531773        1.8605787035        4.0761700641
 H         -0.6182351391        1.2414156913        3.6509587119
 H          0.8487680369        1.3164532265        4.1404795767
 O          2.9916873232        1.7790376648        6.5544418631
 H          3.8933984498        1.5831158093        6.8148419033
 H          2.4630298448        0.9851593422        6.7453289090
 O          4.7288516519       -4.1190987344        2.0416925652
 H          4.5897868277       -4.1204298155        1.0629788227
 H          4.1709722826       -4.8173829489        2.3971177959
 O         -4.7730781886        4.0090014888        1.8767234365
 H         -4.0744811054        3.5298518907        2.3476387662
 H         -5.2326333378        4.5458962920        2.5621129180
 O         -4.8924922311        1.3733375748       -1.3181276864
 H         -5.1579961835        1.1544552776       -0.4129030745
 H         -4.4566808846        2.2473104587       -1.2485963528
 O         -4.8687092323       -4.8089772363       -0.9001078839
 H         -4.7686255622       -4.0942768553       -1.5756979573
 H         -4.7583077416       -5.6078257402       -1.4259667068
 O          0.2613164294        6.3153831039        1.2774346760
 H          1.0017473488        6.8342587941        0.9196877431
 H          0.5408777736        5.9986166007        2.1483357550
 O          0.6417022633       -4.4932183094       -0.8794369348
 H         -0.2691142114       -4.8243469908       -0.7850466320
 H          0.6720210544       -4.0943199095       -1.7737947808
 O         -2.8563724787       -1.1046269882       -0.0308031899
 H         -2.7654803104       -0.2181155603        0.3435487224
 H         -3.8067705032       -1.2035146783       -0.2563576682
 O         -5.4144452747       -1.4770744413       -0.5174809935
 H         -5.7036334145       -1.2024726325       -1.4061963811
 H         -5.6986480314       -0.7839206445        0.1058527457
 O        -10.8923033799       -2.8870288492       -0.3182346695
 H        -10.5684687717       -3.4949780093       -0.9989556880
 H        -10.3081324198       -2.9804939914        0.4473552769
 O          3.4464095899        6.1724351336       -1.4880793686
 H          2.6844238802        6.2395133300       -2.0884612145
 H          3.5044975938        5.2246115816       -1.2258222766
 O          1.0138156543        1.4586509442       -7.3789431589
 H          1.6996690547        0.7924707313       -7.5339483094
 H          0.6720717011        1.2240240600       -6.4812268837
 O         -7.5771827822        3.2888367025        4.2305460001
 H         -6.8564307960        2.6566761305        3.9882693764
 H         -7.1613446437        4.1575093976        4.2749856746
 O         -5.4665860288        0.4969520387        1.2639350230
 H         -6.4025879176        0.6875561994        1.4968104352
 H         -5.0924018103       -0.0547286034        1.9758507528
 O          3.5591576392        3.6603622955       -0.5894482206
 H          4.4245583026        3.2249268778       -0.6326860629
 H          3.3747961311        3.8558709868        0.3512674903
 O          4.6347384946       -1.4484290829       -2.4488206461
 H          5.4522031065       -1.9561923732       -2.2094739884
 H          4.8326506068       -0.9683870281       -3.2780173424
 O         -8.1442380214        0.2215509140       -4.5071521880
 H         -7.6957721157       -0.0259764717       -5.3312351580
 H         -8.5824462819       -0.5747629370       -4.1594864357
 O          6.1201202774        2.5890664413       -0.4968588753
 H          6.3997379545        1.6877899272       -0.7381036672
 H          6.0617370435        2.6400103606        0.4780055496
 O          2.0481408139        0.1144490387        4.1320642039
 H          3.0181212349        0.1257270954        3.9873060072
 H          1.8932755398       -0.1845294661        5.0451398617
 O         -7.1298123613       -4.4952081294       -3.2162787519
 H         -7.1061393000       -3.9881726575       -2.3765026955
 H         -7.1310140458       -3.8383461404       -3.9291659240
 O         -8.9018893425       -3.0938983892        4.5789679217
 H         -9.1896555949       -2.1918390073        4.7963594899
 H         -8.1263479376       -3.2429478774        5.1305508416
 O         -3.2847050670       -0.2554559519       -2.6319265202
 H         -3.9375327400        0.3244365032       -2.1841738439
 H         -2.8746153215       -0.7993715604       -1.9414464976
 O          5.3105152658       -0.3676772027       -4.8007798346
 H          5.0731794804       -1.2060216916       -5.2727277288
 H          6.2660948761       -0.4410869216       -4.6040463582
 O          0.8409265993       -0.9154325741        1.9614589449
 H          1.3525093951       -0.6341985421        2.7448116300
 H          1.0633607408       -1.8431743858        1.7949989756
 O         -7.4735703337        1.2550770387       -2.0939060664
 H         -7.6158622155        0.9543890604       -3.0076670352
 H         -6.5133759532        1.3815792884       -1.9650518174
 O          4.9794228826       -6.8539597407        0.5115722776
 H          4.1937616251       -6.4828555828        0.9699069473
 H          4.6812505855       -7.6793322380        0.1279770115
 O         -0.1810064586        3.7883271311       -6.2218025889
 H         -1.0720513893        3.3780058690       -6.1420263653
 H          0.2823563820        3.2790982972       -6.8928797104
 O         -6.9586039812       -0.7853784581        3.7091042985
 H         -7.7313302590       -0.4869530176        3.2058280646
 H         -6.4196702890        0.0258177955        3.7958319039
 O          4.2731543373       -4.0557815281       -0.5499918461
 H          3.6575676353       -3.3564169263       -0.8285562055
 H          3.8698397690       -4.8867778279       -0.8657649862
 O         -0.6867017787       -1.2886601444        5.0935189838
 H         -0.7396960848       -1.9690076585        5.7913870017
 H          0.0759986368       -1.5259190547        4.5504847495
 O          0.9421827051        6.3830127865       -2.5210113927
 H          0.7516127389        6.3019794195       -3.4750010437
 H          0.3077502728        7.0436897546       -2.1830532799
 O         -8.0685323098        0.5508299232        1.7267250408
 H         -8.2763761521        0.0695889147        0.8948063125
 H         -8.4699106346        1.4288991662        1.6760007804
 O         -4.9394455169       -6.0531740991       -3.3852155393
 H         -5.1544016412       -6.7522100854       -4.0002399067
 H         -5.7256790701       -5.4583146543       -3.3574149567
 O         -4.1904502063        6.0226480758       -2.2284091502
 H         -3.5470987085        6.4451911322       -2.8180945648
 H         -4.1088172774        6.4354465969       -1.3551296641
 O         -1.0244935707       -3.0776632122        1.0365769732
 H         -1.5218563963       -3.5983520670        0.3775994766
 H         -0.7787212841       -2.2515711783        0.5969839510
 O         -1.7967127493       -2.6550788924       -2.1733397583
 H         -1.2769860989       -2.2106946113       -1.4879202000
 H         -1.4439540317       -2.3492249518       -3.0249488796
 O         -8.6197301240        4.4448314579       -2.9902862307
 H         -9.0959115894        4.2432319117       -2.1770912575
 H         -8.9732394923        3.8245970600       -3.6590443030
 O         -9.4023795742       -1.8194698781       -3.1951941660
 H         -9.5483909321       -2.7552404642       -3.0158855545
 H        -10.0936653058       -1.3428901397       -2.7234402244
 O         -9.1117488569       -3.0228101858        1.8997604567
 H         -8.1706307862       -2.9091591335        1.6822511030
 H         -9.1159530789       -3.2071600161        2.8606031681
 O         -6.3778530077        5.8183131768       -4.0574893400
 H         -5.7566291716        5.8707832819       -3.3104245161
 H         -7.2606867494        5.8427303645       -3.6718000109
 O         -4.4281668629        0.4906300443       -7.3553785048
 H         -4.5625178048        1.4497273104       -7.2595383962
 H         -3.6125463130        0.3815131189       -7.8568581729
 O         -8.6018694124       -5.3067759514        0.2953073612
 H         -8.1131224739       -4.5657283177       -0.1273281516
 H         -9.0566840102       -4.9001352342        1.0417981728
 O          2.0785530887       -1.1463388985       -3.5182147068
 H          2.4976688821       -0.3406374527       -3.8358393631
 H          1.8941201568       -1.6797469979       -4.3116426583
 O         -2.2157389605       -2.6240002205        3.3380218357
 H         -1.6555830904       -2.0498100084        3.8961122927
 H         -1.7271157944       -2.7804939183        2.5036356128
 O          2.8766436252        1.2705600312       -4.5606127113
 H          3.5758414897        1.4900367567       -3.9045415866
 H          2.8493290487        2.0506292925       -5.1502728861
 O          4.7167436294       -2.6928627484       -5.8408789455
 H          4.0929192115       -3.0742682376       -5.1911508053
 H          5.5506924141       -3.1504543630       -5.6649052840
 O          4.7279014835        1.9208866739       -2.8354119220
 H          5.5772074752        1.5883766367       -3.1389855030
 H          4.4932741525        1.4624598644       -1.9924213067
 O         -1.4595299075        0.1490934233        2.8274171387
 H         -0.7436849187       -0.3166505564        2.3659234262
 H         -1.9932780153        0.6225370787        2.1579861524
 O         -5.3057995576       -0.7925616412        8.0266406361
 H         -5.2280174856        0.1074246127        7.6835391738
 H         -5.9417864362       -1.2530206262        7.4455239055
 O          0.9946838793        5.7275842242        3.8661724693
 H          1.1151878376        5.0955069794        4.6011530097
 H          1.7966000323        6.2613513435        3.8177753338
 O         -3.8789209162       -3.3522487624        1.1355567288
 H         -4.1453278102       -3.8977391937        0.3731600006
 H         -3.3555242920       -2.6123210355        0.7806544426
 O         -1.5150177188        5.5290333946       -0.5538802638
 H         -0.6372508624        5.6059349846       -0.1448733271
 H         -2.0240750995        5.0323721848        0.1165977530
 O          0.9531815328        3.8667039545        5.8362450914
 H          0.6016283452        3.1984535951        5.2270851947
 H          1.7135472300        3.4597432569        6.2619440146
 O          0.3662050980        3.0674669096        1.6993047797
 H          0.3174799058        2.7355761773        2.6175556132
 H          1.1099200728        3.6967590555        1.6458039168
 O         -3.0945205465       -5.3097078951        2.7078700393
 H         -3.1982023780       -4.4942240702        2.1552977839
 H         -4.0057599309       -5.4116872058        3.0663987103
 O          3.2467519926        6.8831039730        2.7024729284
 H          4.2040672044        6.7436294439        2.6445275285
 H          2.9986506913        7.4090192833        1.9259772848
 O         -2.9193755950        1.4328909108        1.0514523535
 H         -2.6343301222        2.3553648568        1.1855349598
 H         -3.8678293726        1.3849774784        1.2316792474
 O         -3.2463031215        2.5648947777        3.6930915452
 H         -3.4225283531        3.1932487783        4.4143428684
 H         -2.8685138000        1.7765953408        4.1260033605
 O          3.0635003109       -0.2797477204       -6.8412255788
 H          3.9529828089       -0.4487119857       -7.1530756425
 H          3.1468993930        0.1863249127       -5.9839378094
 O          1.0181039084       -5.0453369863       -5.7058981766
 H          0.0755523965       -5.0192874149       -5.9148264298
 H          1.3797120172       -4.1715869874       -5.9390934253
 O         -4.3058522311       -3.1191942098       -2.7933197205
 H         -3.3816859748       -2.9228102678       -2.5326164476
 H         -4.7921403381       -2.2727558078       -2.8541370356
 O         -0.7907261735       -1.9576495662       -7.2053540828
 H         -1.1566765214       -1.0437072730       -7.2732646897
 H         -0.8145723051       -2.3238699433       -8.0884794893
 O         -9.4904467143        2.5565684373       -4.7482482815
 H         -9.0477461372        1.6874966625       -4.7029146936
 H        -10.3132592936        2.4218968669       -4.2385848836
 O          7.0107779300        2.8696103699       -4.5931147693
 H          7.9024290495        3.1879299480       -4.4360440878
 H          6.4089133829        3.5636282056       -4.2705472397
 O          9.0285612349        4.1237735002        0.5280549740
 H          8.4061444867        4.4580662725       -0.1297335553
 H          8.7272415355        3.2169633376        0.7798143676
 O         -4.0210969172        3.4963123341       -3.7065129892
 H         -4.7292886167        3.7296511505       -3.0784647532
 H         -3.1640887415        3.7453070475       -3.3159473252
 O         -2.2580597841       -5.3059239370       -3.2756244909
 H         -1.9802112226       -4.8495850921       -4.0869384511
 H         -3.1867214514       -5.5599495581       -3.3941948590
 O         -2.3871237542        2.3754604169       -5.9090373934
 H         -2.3157024364        2.2081570083       -4.9465749213
 H         -3.2922196653        2.6755081036       -6.1015590799
 O         -3.3212784060       -0.9239374245       -5.2625852021
 H         -3.5103763025       -0.6075861859       -4.3609793820
 H         -3.7639041752       -0.3113803265       -5.8730403192
 O          0.7940375378       -3.6945464829       -3.3848098256
 H          0.7326554915       -4.4159089792       -4.0347762790
 H          0.2963323997       -2.9545981993       -3.7626194068
 O          1.6076607199       -2.3764566220       -5.9242555068
 H          2.2448866127       -1.7983401685       -6.3779085871
 H          0.7333592979       -2.1462328313       -6.2839840485
 O         -6.1815130324        3.9442648831       -1.9909764869
 H         -6.3571198572        3.4078174597       -1.1907230087
 H         -7.0392382152        4.0124626754       -2.4528056360
 O         -1.9248437057        7.9069768588        1.2383184421
 H         -1.1590217844        7.2978201207        1.3309744623
 H         -1.7260238584        8.4503504144        0.4719017163
 O         -1.7256118777        5.2977364343        3.8839391572
 H         -0.8128924210        5.6027068223        3.7768159416
 H         -1.7908488752        5.0445227724        4.8299982878
 O         -2.2487122927        6.7543653247       -4.1353375562
 H         -2.8784104547        6.4886100141       -4.8316233536
 H         -1.9251194858        5.8900350422       -3.7687530648
 O          5.8838830867        0.3619554681        6.1585402496
 H          6.7261050777       -0.0521079766        5.9002598831
 H          5.3099079198       -0.3843556870        6.4012078001
 O         -8.3812848858       -0.6921882369       -0.5867134164
 H         -7.9457639073       -0.0384306681       -1.1829052659
 H         -9.3216574031       -0.6638896268       -0.8446128382
 O         -1.1967240757        7.8975052441       -1.7501007519
 H         -1.6137761712        7.8573315307       -2.6189386146
 H         -1.4924610223        7.0947325404       -1.2752652276
 O          4.7111377461        0.1650301741        3.7531748313
 H          5.0827255127        0.4762416654        4.5930928791
 H          5.0761678891       -0.7428422425        3.6413251531
 O         -5.6486731372        1.5285144848        3.9545699992
 H         -5.4876737108        1.4624871750        4.9185705643
 H         -4.7968047450        1.8719550048        3.6045709456
 O          5.3622824648        1.7766467108       -6.4729859659
 H          5.2659882484        1.0033953759       -5.8818992839
 H          6.0601853774        2.2918553981       -6.0411472861
 O        -11.2735711566        1.9666395495       -2.8227011011
 H        -10.6982579410        2.3643871142       -2.1403642974
 H        -11.3708429661        1.0438965800       -2.5651541887
 O        -10.9866992439       -0.4247598261       -1.2369801970
 H        -11.1178400343        0.2004806243       -0.5018123742
 H        -11.1812267081       -1.3192670892       -0.8759007456
 O          9.6901412344        1.1439890973       -3.2723730647
 H          9.4849275648        2.1063150822       -3.2448863732
 H         10.6148126697        1.0619931406       -3.5151925235
 O         -0.7009597195       -7.5653841089       -0.0126131030
 H         -1.6438474151       -7.7481242280        0.0693326091
 H         -0.5348869144       -6.8037445625        0.5744406740
 O          5.2026248044        4.5160058102       -3.3561707868
 H          4.8753237235        3.6557166736       -3.0265481011
 H          4.4261890859        4.9498263146       -3.7403455252
 O          5.8723300205        6.6461928770       -0.2405519355
 H          5.0475106144        6.6359517813       -0.7469862195
 H          6.4755171933        6.0494642559       -0.7136789104
 O         -4.2790481947       -1.0708831371        3.0923463784
 H         -4.8145445553       -1.6378074564        3.6572809256
 H         -3.4541564390       -1.5838462429        2.9238872011
 O         -3.7176039743        7.0543763225        3.4259691954
 H         -3.3568909043        7.7172094592        2.8317966487
 H         -2.9761847648        6.4447101185        3.6131979614
 O         -0.8199353974       -1.6371187036       -4.4595882188
 H         -0.2939880117       -0.8324729004       -4.6392655811
 H         -1.6806217445       -1.4574352430       -4.8734662635
 O         -6.6699460303        6.1668007928       -0.4310290159
 H         -6.4745349718        5.4161877674       -1.0238016470
 H         -5.8145033107        6.4869393355       -0.1173252319
 O         -1.6571180440       -4.1934419858       -5.7349895893
 H         -1.3029625323       -3.3373588216       -6.0230047277
 H         -2.6240537702       -4.0990934755       -5.8250254678
 O          8.1884322489        5.0867682035        2.9621428332
 H          8.2515536372        4.3325326087        3.5516418974
 H          8.6209498752        4.8280882080        2.1284559274
 O         11.1728854308        3.6858735354       -1.0028773258
 H         10.4451824115        3.8272556308       -0.3505954874
 H         11.8415960699        4.3434161405       -0.8131634625
 O          2.7329930191       -6.0756663911       -1.3910076841
 H          1.9111983893       -5.5669832727       -1.2204044654
 H          2.7029369100       -6.2985726862       -2.3399247388
 O          5.9964575594        0.5816017080        1.3921113593
 H          5.5625913729        0.5759981719        2.2629952168
 H          6.1778055506       -0.3546755343        1.1705301752
 O         -6.3919233226       -2.8526365235        2.0294195237
 H         -6.5051527369       -2.0727037969        2.6017866215
 H         -5.5023889809       -2.8211204964        1.6284556856
 O          6.8200209163       -3.9843888216       -4.5846172258
 H          6.3612794592       -4.8114134917       -4.3534410265
 H          7.7627210575       -4.1511424774       -4.6576698468
 O          5.0357825193       -5.7896759977       -3.5815374945
 H          4.4417081803       -6.5021372080       -3.8344974061
 H          4.4507521078       -4.9970145906       -3.5224579002
 O         -1.5944859286        0.5301017285       -7.6669957634
 H         -1.8906199827        1.1178334070       -6.9361866558
 H         -0.7267454987        0.8813734884       -7.9148577481
 O         -4.2221969757       -3.4152020592       -5.4243546309
 H         -3.8933296013       -2.4919476377       -5.5059770589
 H         -4.2412544012       -3.5581325873       -4.4507939981
 O          3.0949606926        3.1303759306       -6.4641582562
 H          3.9776464959        2.7074608061       -6.6075305315
 H          2.4694438395        2.7086257559       -7.0700133647
 O         -3.3998118527       -7.0239165907        0.5994855154
 H         -4.3455768730       -7.1936800906        0.5339383252
 H         -3.2939569061       -6.5328891280        1.4360507206
 O         -4.0705988609        6.4590186542        0.4749393270
 H         -3.3218701181        7.0076320310        0.7812312509
 H         -4.1585160685        5.7364711020        1.1106635118
 O          8.9613292128        1.4486691332        3.8684631226
 H          8.8262270108        1.4519618371        2.8969401632
 H          8.6764355042        0.5754255410        4.1865127139
 O         -9.5700673518       -0.4514098175        5.1445347394
 H        -10.2519870864       -0.4424671484        5.8160322367
 H         -8.8516996135        0.1241570775        5.4845912923
 O         -6.5935007960       -2.1210248551        6.0187706533
 H         -5.8021068196       -2.6004428728        5.7430727725
 H         -6.8390169559       -1.5524266931        5.2643921511
 O         -4.2939978937       -3.2836503644        4.9045843066
 H         -4.7474410473       -4.0852832991        4.6165160364
 H         -3.4923944562       -3.2107008381        4.3493860942
 O          6.4221585354       -3.5864668203        5.6568743258
 H          7.3715002394       -3.6261158848        5.4946238719
 H          6.0883999955       -4.4968564757        5.4215236301
 O         -8.9757519297        3.1703420596        1.9952212619
 H         -9.9189610357        3.0429739426        2.1019210726
 H         -8.5630317432        3.2085579702        2.8921369885
 O          1.7957733741       -3.1560598219        6.3197218736
 H          1.5151317469       -3.1306814825        5.3738446245
 H          0.9917312494       -3.4082427515        6.7946063617
 O         -9.7010250262       -4.6258407866       -2.2162616235
 H         -9.5475544281       -5.1769738893       -1.4351908346
 H         -8.8904928582       -4.7362192289       -2.7431636066
 O         -1.5583038357        4.5106793225       -3.0097079372
 H         -1.5169243608        4.8199350232       -2.0804359343
 H         -0.7032851950        4.0730770909       -3.2017122118
 O         -9.4412336730        2.7473256721       -0.9517050114
 H         -9.8389626218        2.2735666125       -0.2124096209
 H         -8.6962234793        2.2085685631       -1.2849188053
 O         -0.8524078811       -3.3857581654        6.8471932940
 H         -1.1034330097       -4.0598698632        6.1928992040
 H         -1.6783826648       -3.0757793272        7.2482517840
 O          8.4006107818        1.6660737646        1.2452273717
 H          7.5001271509        1.2658970963        1.3345354221
 H          8.8775460988        1.1205041067        0.5958742727
 O          5.5302646439        3.1553168819        2.0421193542
 H          5.9224970998        2.8790015516        2.8861732971
 H          5.4823752766        4.1319994926        2.0748137460
 O          8.9737659074       -2.3054939226        0.1054784423
 H          8.8416222101       -3.0547037987       -0.5103444171
 H          9.2094890649       -1.5342163375       -0.4298448922
 O          4.9284998389        4.7162830256        4.7656793667
 H          5.6997791210        4.1343319818        4.8275286967
 H          5.1130854245        5.3283785385        4.0450793767
 O          0.3004417251        6.2823542384       -5.1556019157
 H         -0.5651324578        6.6982203896       -5.0155565047
 H          0.1139191668        5.4439390698       -5.6122993038
 O          7.7395034693       -0.6826323208       -3.7646424581
 H          8.4418733378       -0.0187527352       -3.8442191199
 H          7.3764755133       -0.5506269046       -2.8638051753
 O         -1.1605443569       -0.2121669608        7.7041645106
 H         -1.8730285209       -0.8146065983        7.3968074144
 H         -1.2424516681       -0.1653984728        8.6560300231
 O         10.7021261526       -0.7137735898        2.8751233651
 H         10.8036295603        0.1030442160        3.3689379308
 H          9.7283942537       -0.7907685276        2.6975898666
 O          9.3125868333        3.7582998229       -3.0463987055
 H         10.0880250751        3.8685990289       -2.4740854195
 H          8.5583904559        4.1228971930       -2.5377420505
 O          6.6934206411        2.6176179982        4.5095952762
 H          7.5935494011        2.2620249120        4.3084848369
 H          6.3485795243        2.0469973757        5.2040342543
 O          9.5642051830        0.2412292902       -0.7584166166
 H         10.4528308867        0.0295909564       -0.3929816051
 H          9.7138007398        0.5659875650       -1.6743617770
 O         -4.8586834828        1.5250722729        6.5067405258
 H         -4.0542402299        1.0652566244        6.1774090040
 H         -4.6325494842        2.4664469468        6.5121895771
 O        -10.5112058015       -0.7186237877        2.5393081291
 H        -10.0534767091       -1.5150186306        2.2150060188
 H        -10.1948356327       -0.5672029957        3.4419287109
 O         -7.8392516555        5.7934433020        1.9334606983
 H         -7.4847815208        6.0006506197        1.0402236818
 H         -8.3827166596        5.0036091882        1.8248344931
 O         -1.7318036832        4.7222020631        6.4889664018
 H         -0.8236645695        4.9724451433        6.6801459368
 H         -1.7193620655        3.7368314631        6.5139807896
 O          2.8088304118        5.0419431502       -4.5498238569
 H          2.2444851379        5.7504341144       -4.8753279117
 H          2.9567543636        4.4472174051       -5.3062410685
 O         -4.8011470173        3.1623789265       -6.9160513477
 H         -5.5837431038        3.1403774733       -6.3262226160
 H         -4.4965480077        4.0820172208       -6.8715067488
 O          9.1133889460       -4.4605893764       -1.4759106021
 H          9.1708414046       -3.9602165496       -2.3256073285
 H          8.2415786101       -4.8956336231       -1.4902655732
 O          3.5863719047       -1.3193916909        1.3824956654
 H          3.5485068630       -0.3559423108        1.5071502011
 H          3.4902753899       -1.6981608199        2.2798795867
 O         -6.7942732542        3.2909868870       -5.1450527980
 H         -7.7494350049        3.1900751218       -5.2300517126
 H         -6.6397961066        4.1623901733       -4.7312248901
 O          1.4807320175       -0.4806378109        6.7331924970
 H          1.6384049346       -1.4440013287        6.7093819102
 H          0.5512996757       -0.3602922340        6.9903064381
 O          5.9368411102       -2.1323961606        3.4540448208
 H          5.4458466720       -2.7724068556        2.9060606647
 H          6.1274369655       -2.6026822477        4.2898554393
 O         10.6298809642       -3.3233859482        1.9813209583
 H         10.9768031382       -2.5520293733        2.4455885939
 H          9.9435946167       -2.9577706510        1.3749223838
 O          4.0861434696        0.4633268729       -0.7347351351
 H          4.3546361396       -0.3091470626       -1.2805454986
 H          4.7357830921        0.5520696494       -0.0221115707
 O         -1.2827027775       -5.0703461379        4.7455667658
 H         -0.7253569862       -5.8549870608        4.6806977097
 H         -1.9971671939       -5.1476057651        4.0842100099
 O         -0.4386052100       -5.5758890384        1.8465409904
 H         -1.3594826688       -5.6213815453        2.1368790666
 H         -0.3229669660       -4.6589264467        1.5385398809
 O          0.6266747014       -3.2945729942        3.8964510343
 H          1.0387065335       -3.5285060500        3.0550723131
 H         -0.0833939428       -3.9323493492        4.0839383354
 O          7.1995196576        4.6630167354       -1.6129571569
 H          6.5630285866        4.8462524719       -2.3314178927
 H          6.8151048101        3.8489769638       -1.1967655928
 O         11.8048388394       -0.5802841310        0.3896218872
 H         11.8775160026       -1.4965829989        0.0763526662
 H         11.5101630252       -0.6189018615        1.3211232085
 O         -0.0455625279       -6.8319784597       -2.6165665247
 H         -0.8312145904       -6.3464968520       -2.9125909752
 H         -0.2606871966       -7.1804751025       -1.7382911775
 O         12.1916368064        1.1637941536       -1.7914679233
 H         12.4334228502        0.7516161616       -0.9534448833
 H         11.8643155076        2.0479830926       -1.5661116032
 O          9.3172545963       -2.9215708092       -3.6414849570
 H          8.6577216046       -2.2022885376       -3.7118291184
 H         10.1544087415       -2.4577232011       -3.4930086177
 O         -5.6715278765       -5.1304181558        3.2962019815
 H         -5.9349595065       -5.7793087243        2.6131902579
 H         -6.0196059775       -4.2896878127        2.9260790250
 O          0.8761635453        4.1658360237       -0.9332219130
 H          0.8818439010        4.9244434794       -1.5408827011
 H          1.7813450128        3.8388574449       -0.8986194218
 O         -2.0096878613       -4.9425750452       -0.6154904589
 H         -2.1466698663       -4.8274508565       -1.5745887867
 H         -2.5578969976       -5.6927231055       -0.3384843480
 O         -3.1287746632       -1.9912359614        7.1570442523
 H         -3.5050321963       -2.3910511758        6.3597344067
 H         -3.8999011520       -1.5788717781        7.6170665236
 O          4.3700582679       -1.9306849818        6.2549726189
 H          5.1080045305       -2.5634683049        6.1948707046
 H          3.6249109783       -2.4046075318        6.6405242656
 O          2.7488094217       -6.0678480673        1.8309511603
 H          2.2648843810       -5.2665116720        1.5680708632
 H          2.3470863797       -6.8249925766        1.3515897711
 O          3.3722616283        1.4928701921        1.7592359144
 H          3.0220073201        1.7333068097        2.6277475325
 H          4.1796271560        2.0295767292        1.6929460704
 O          2.3451941284        7.7592041988        0.2928049906
 H          2.1529557001        8.5688072085       -0.1782804509
 H          2.7952350950        7.1531024273       -0.3527281870
 O          8.1376103324       -0.9665839117        2.2957641968
 H          7.4012826847       -1.3799249547        2.7790138727
 H          8.2551767436       -1.5026378248        1.4951095955
 O          0.8760342665       -6.6484067358        3.9051683261
 H          1.2485108464       -7.5043759837        3.6932306015
 H          0.5304916302       -6.2810963528        3.0616855438
 O          2.0031271858       -8.0565039676        0.2560236616
 H          1.0530993932       -8.1757730726        0.1299891840
 H          2.2934084971       -7.4884322948       -0.4889963166
 O          6.7323212120       -2.8928601824       -2.0671057472
 H          6.8196465067       -3.1910327423       -2.9896229768
 H          6.4356187127       -3.6672278129       -1.5607724727
 O          7.3789310663       -3.8313713762        1.7732961374
 H          7.9936251914       -4.5088801268        1.4387901762
 H          6.5541141905       -4.3013706308        1.9894364491
 O          3.5074704986       -3.6260852199       -3.6017679713
 H          3.8432931463       -2.8509712500       -3.1076122917
 H          2.5406282168       -3.6434611241       -3.4782855902
 O         -6.9315186750       -0.4539624127       -6.8939444550
 H         -7.4182343587       -0.1421428375       -7.6564354960
 H         -6.0065143067       -0.1648001453       -7.0143620751
 O          8.2383784585       -0.8655925224        5.2606574821
 H          8.3451713397       -1.7028081488        4.7521412859
 H          8.8607842435       -0.9111209288        5.9858842687
 O          6.8008472658       -6.4710028357        2.4878299258
 H          7.6928312205       -6.5727285142        2.1450158583
 H          6.1906057545       -6.7165266504        1.7704590810
 O          8.6542326119       -3.2558685800        4.0624081077
 H          9.5505467109       -3.4275550498        3.7579584255
 H          8.0961378843       -3.4293455638        3.2644611043
 O          2.6948993142        4.3840495129        1.8321686847
 H          2.8691502951        3.8425029414        2.6171333180
 H          2.8450165698        5.3085568150        2.1074333292
 O          3.0004224881       -5.0293989724        4.4862445197
 H          2.7444725815       -4.7507796900        5.3723039947
 H          2.3000491210       -5.6368106405        4.1770057189
 O         11.4430013631       -1.4149184537       -2.7166572354
 H         11.7927604968       -0.5347598158       -2.5242307109
 H         11.8711024939       -2.0187380756       -2.1014797621
 O          5.5636737406       -5.9023399438        4.8631162619
 H          6.0313281385       -6.1657950312        4.0527427903
 H          4.6392250182       -5.7312672928        4.6162581579
 O          9.2729992397       -5.6433309578        1.0813432533
 H          9.9780091096       -5.1586900740        1.5256237858
 H          9.3715618342       -5.4732571952        0.1348015785
 O          6.5830548293       -5.5316092648       -1.3463456998
 H          6.0757977895       -5.9102363716       -0.6126333779
 H          6.0581402005       -5.7281956357       -2.1429296915
 O          3.1858920450       -2.3764244050        3.7878286702
 H          3.1760700527       -3.3444287671        3.8192796242
 H          3.6166664896       -2.0854561112        4.6051854623
 O          6.0504538061       -1.8522283497        0.4000480049
 H          6.5456828175       -2.6156636102        0.7380810560
 H          5.1208118747       -1.9428623818        0.6706093783
 O          6.9235785764        0.0508817504       -1.2958793227
 H          6.6064705811       -0.7512107415       -0.8353925184
 H          7.8523072838        0.1388007274       -1.0417011798
 O         -7.8235263904        1.3108928537        6.1651523972
 H         -7.8839697603        2.1080521325        5.6158381014
 H         -6.9320708264        1.2883542547        6.5263058224
 O         11.7248599567       -3.2662470839       -0.5315818689
 H         11.6091433695       -3.5173374866        0.3993376629
 H         11.0167670599       -3.7193101254       -1.0061091383
 O          3.0913152564        2.9111235506        4.0790050716
 H          3.7438687505        3.5893778414        4.3543347096
 H          2.9591494368        2.3775586210        4.8772806891
 O          5.7219910013        5.8259963024        2.2532714078
 H          6.6499273575        5.7437983436        2.5557736028
 H          5.7777844628        6.1826489203        1.3329162024
 O        -10.9887063610        1.2720822209        0.9403445764
 H        -11.9081254701        1.4770173998        1.1072614317
 H        -10.7519084541        0.5292499613        1.5600472419
 O         -6.1749011585       -6.3386708757        0.9526003950
 H         -5.7759393561       -5.6727139243        0.3659060216
 H         -7.1292883502       -6.2447999554        0.7846441018
 O         -5.9580944152       -1.0415369751       -3.1053589440
 H         -5.6532705272       -0.2291487453       -3.5615201436
 H         -6.4548412688       -1.5555865569       -3.7666222222
 O         -6.7613994781       -2.6144357945       -5.1677431764
 H         -5.8826441364       -2.9870594078       -5.4006758100
 H         -7.0004472307       -2.0276273025       -5.8948363007
 O         -7.4114472470       -3.1983534168       -0.8660431369
 H         -6.5410884668       -2.9077963050       -0.5470161591
 H         -7.9366487070       -2.3738552450       -0.8792683492
 O         -0.0977644099       -1.3179342322       -0.5722950864
 H          0.1616959907       -0.3855587617       -0.4010024962
 H          0.7664613717       -1.7371376312       -0.7301342995
 O          1.1427055852        1.0001659627       -0.2000527930
 H          0.6644992363        1.7428096503        0.1806009885
 H          2.0039629916        0.9893815606        0.2290549521
 O         -7.5592780160       -7.1994739749       -1.9187959630
 H         -8.0048101491       -6.6722664378       -1.2511754583
 H         -6.7744332049       -6.7106111542       -2.1769903099
