  87
       -147.58869064
 O         -3.3157881658       -3.0837764740        1.1360488501
 H         -3.9051282713       -2.3593119760        0.8863701812
 H         -2.9263833303       -3.4067630387        0.2996860827
 O         -2.1847319010       -3.6557279109       -1.2872062872
 H         -2.6993519458       -4.1137026447       -1.9511818276
 H         -2.1216649911       -2.6811158199       -1.5883405505
 O          0.4133655868        0.0063711730        3.0832212932
 H          0.7612571340        0.4098608905        2.2726105477
 H         -0.1844732188       -0.7092149868        2.7954681554
 O          2.7104596575       -1.0063920375        3.9293474184
 H          1.8148373467       -0.6654614709        3.6759448346
 H          2.7111627357       -1.0962800874        4.8821434584
 O         -0.1662755003        2.5773235291       -0.4103872067
 H          0.4984382960        2.0425829523        0.0413647044
 H         -0.8518134219        2.7662923853        0.2659761344
 O          3.4510912368        2.7518384635       -0.4734576601
 H          3.9249347316        3.4765623272       -0.0612979704
 H          2.7643717345        2.4753378656        0.1827080088
 O          4.2157476325       -2.3337316053        0.0407715723
 H          4.3120844653       -1.3760037344       -0.0344514693
 H          3.7052929192       -2.6277217477       -0.7380804059
 O          1.4657166805        4.0090414938       -2.0524241416
 H          2.2882758287        3.5797831641       -1.7784907332
 H          0.7988566418        3.6816638732       -1.4217405083
 O          0.5136665160       -4.2694173652       -1.1135447266
 H         -0.4248795364       -4.0573950237       -1.2564977039
 H          0.6423213135       -4.1603681969       -0.1547159140
 O          1.8065671331        1.8572542309        1.4279882961
 H          1.2761635425        2.4186213802        2.0356864973
 H          2.6064659584        1.5749723130        1.9425229832
 O          3.1466511957       -3.2479480855        2.3270533805
 H          3.6081219643       -2.9569732583        1.5104142364
 H          3.0826498248       -2.4650125334        2.8958960031
 O         -2.1892357602        2.6655561160        1.3357318916
 H         -2.8730656386        3.0267367392        0.7524591503
 H         -2.2077352229        1.6922535357        1.1738817183
 O          4.0082781955        0.9941762508        2.5827885034
 H          4.4537194314        0.6272811334        1.8034358917
 H          3.7055190653        0.2349075715        3.1113765910
 O         -2.1516826902        0.1165346930        0.6103217512
 H         -3.0853189012       -0.1653361633        0.6341085025
 H         -1.6674090215       -0.5805589691        1.0962768839
 O         -1.8377891578        2.3635997529       -2.5110987654
 H         -1.2333567959        2.2071726139       -1.7586263728
 H         -1.2608113520        2.7397003829       -3.2114595048
 O          0.7493299993       -3.8993724322        1.5938981917
 H          1.6835743458       -3.6561330437        1.8619937446
 H          0.5313944050       -4.6970752873        2.0764780399
 O         -1.0735388630       -1.9366515480        1.9805707693
 H         -1.9259121382       -2.4122711616        1.8396639226
 H         -0.3868434001       -2.5980807657        1.7672423336
 O          2.7965696397       -3.3044252557       -2.1047486157
 H          1.9220422242       -3.6266936100       -1.7831142299
 H          3.2686083918       -4.0883556430       -2.3872984971
 O          0.0683025108        3.2021691594       -4.1920529887
 H          0.5969715531        2.4968500251       -4.5688525501
 H          0.6308914181        3.6231616513       -3.5024903324
 O         -3.7034796901        0.7474222278       -3.5783232820
 H         -3.9789658263        1.1650119409       -4.3946063233
 H         -2.9788506007        1.2980307311       -3.2097943444
 O         -4.7549806599       -0.6774313382        0.5662537658
 H         -5.3744258262       -0.4818744595        1.2699267421
 H         -5.0121649349       -0.0982506919       -0.1968686453
 O          4.8611666920        0.4465435605       -0.0148623740
 H          4.3714095081        1.2388291503       -0.3138484756
 H          5.7356185461        0.4874049592       -0.4026335912
 O         -0.0309824236        2.8566666076        3.0969325201
 H         -0.0990797050        1.9970148024        3.5314330965
 H         -0.8551171226        2.9643767158        2.5984244578
 O         -3.7376578617        3.3665209539       -0.8862679398
 H         -3.0501217091        3.0618972732       -1.5206052163
 H         -3.9869473310        4.2511182871       -1.1542861601
 O         -5.2822491377        1.0665103951       -1.3401721609
 H         -4.8524404642        1.8904692844       -1.0590310688
 H         -4.8289277717        0.8122385332       -2.1638057272
 O         -1.8371515958       -0.9131405954       -1.8992295583
 H         -2.4896505513       -0.4749177846       -2.4572441564
 H         -1.8788141821       -0.4681308707       -1.0194021683
 O          0.9768680486       -0.6863363014        0.3462045175
 H          0.9828402814       -0.1906949313       -0.4855439059
 H          1.2584765205       -1.5790922235        0.1429066389
 O          0.7218646949        0.2969278136       -2.2695108627
 H         -0.1556010582       -0.1206722609       -2.2666411893
 H          1.3271981402       -0.3163893743       -2.6884406132
 O         -4.8423378574        1.6494491415        2.3440211864
 H         -3.9176912290        1.9199792367        2.3742611694
 H         -5.3643978321        2.4523213669        2.3339283310
  87
       -147.58799064
 O         -3.0187759546       -2.6952181793        0.8507190210
 H         -2.2909531202       -2.0538351756        0.9400506708
 H         -3.7876530155       -2.1854439626        0.5698012845
 O         -3.7608987902       -0.9192631579       -2.3218704507
 H         -4.2733658386       -0.9410017974       -1.4988084911
 H         -3.6528669342        0.0293091325       -2.5447953641
 O         -1.3961232694        0.5014946300        3.1743180672
 H         -1.7572742581       -0.0067398307        3.9025491167
 H         -0.4641367798        0.7312646636        3.4533066913
 O         -1.0952287261       -4.6370446359        0.3975638558
 H         -1.9012060163       -4.1333763046        0.5981617378
 H         -0.9203993193       -4.4829051203       -0.5461612966
 O          2.2733016740       -0.3483775863       -3.3130156935
 H          3.1208947914       -0.2952546839       -2.8062656184
 H          2.5255863416       -0.3810042870       -4.2366896229
 O          3.0224946353        2.6606183377        3.2750332117
 H          3.4045519478        2.2136271344        2.4909356198
 H          3.7007322092        2.6589784769        3.9508108435
 O          4.5300638059       -0.2616184959       -1.9208091197
 H          4.9343482711        0.6117941921       -1.7547382417
 H          4.4547918548       -0.6778747921       -1.0506836002
 O          3.9073467121        1.3521649321        1.0763983336
 H          4.2030444864        0.4404753331        1.1743431769
 H          2.9262496521        1.2565143634        0.5974622176
 O         -0.6510748686       -3.8005566018       -2.2344891583
 H         -0.9003374233       -2.8548322141       -2.0371011124
 H         -1.2506365181       -4.0976101454       -2.9192404112
 O          5.4018193073        2.1463435764       -1.0234467344
 H          4.9180675081        1.9756422675       -0.1857254229
 H          5.0584646100        2.9681701889       -1.3757191822
 O          2.3772145601       -1.3074668380        2.8105430857
 H          3.0602064186       -1.2750790193        2.1287071687
 H          1.7712816500       -2.0132946221        2.5399602647
 O         -2.6485299683        4.3016685542        0.8869225904
 H         -2.8353196932        3.7389690654        1.6768387358
 H         -2.7257043978        5.2090556340        1.1809753190
 O          1.0691569844        0.8353537229        3.9043595259
 H          1.6352346842        1.6012206596        3.6982965167
 H          1.5587730300        0.0553546914        3.5842350883
 O         -0.8164996050       -1.0549173197        1.0138212643
 H         -0.9865753363       -0.5541141560        1.8339426832
 H         -0.1684498490       -1.7655744116        1.2253457242
 O         -3.0502363662        1.6785716296       -2.4898186040
 H         -2.7033571335        1.5125981040       -1.5626088755
 H         -2.2517350338        1.7218932888       -3.0266853874
 O          0.8065198736       -3.1157653248        1.4315855724
 H          0.1145788214       -3.7792884217        1.1846022299
 H          1.5096226410       -3.2317488339        0.7694415170
 O          2.8909225859       -3.4399503986       -0.3454494884
 H          3.2070807641       -4.3433931887       -0.3768319477
 H          2.5414766848       -3.2408936768       -1.2707840978
 O          4.3293747674       -1.4671068925        0.6874849759
 H          3.7827719180       -2.1920726574        0.2984653450
 H          5.1692023013       -1.8617955819        0.9274060550
 O         -0.2906895029        0.9632619570       -2.8942744753
 H          0.6104970568        0.7229637034       -3.1363696023
 H         -0.6521595716        0.1485007060       -2.4992592863
 O         -1.2489600108       -1.3248512462       -1.7074069582
 H         -2.2167278769       -1.2294480346       -1.9188151689
 H         -1.1469864588       -1.2051438812       -0.7507484763
 O         -5.2558239826        1.6132783488        1.0809687116
 H         -6.1169693963        1.9088676563        1.3789406073
 H         -5.0065650503        2.2322042769        0.3239230499
 O          1.9298441664       -3.0175234184       -2.6923666098
 H          1.0097247801       -3.3301083076       -2.6055805238
 H          1.8946724752       -2.0635124066       -2.8933429743
 O         -3.2551625205        2.5594849918        2.8163541074
 H         -3.9825319393        2.1232446160        2.3428277065
 H         -2.5641907473        1.8859176190        2.9443262381
 O         -4.5826950870        3.2833056133       -0.7879246321
 H         -3.8597835368        3.7463497464       -0.3224859826
 H         -4.1650555734        2.8261686455       -1.5371872331
 O         -5.1246567301       -0.9024402566        0.1079744428
 H         -5.1634999479        0.0059983496        0.4764446847
 H         -6.0208328250       -1.2390009626        0.0919984434
 O          1.5925505784        0.8153708093       -0.0404630502
 H          1.8092790977        0.7583444480       -0.9772926371
 H          1.0449872971        1.6146258510        0.0675767257
 O          0.0866116384        3.0998508464        0.0519291275
 H         -0.7562177033        2.6555883158       -0.1471530738
 H         -0.0847025576        3.6683802304        0.8042794241
 O          2.2391284253        2.9381272934       -1.8659442276
 H          1.6559532339        2.6911475144       -2.5868316624
 H          1.6587664208        3.2641289715       -1.1673652273
 O         -1.9994693115        1.2955933040        0.0026226568
 H         -1.4137688829        0.5552995040        0.2281207165
 H         -2.5621096573        1.4519760065        0.7645637555
  87
       -147.59303988
 O         -1.7637472668       -2.4399016633        0.9689104047
 H         -1.6043993001       -1.4631783734        0.8144495995
 H         -2.3864857912       -2.7220363331        0.2603412882
 O         -3.3159888035       -2.8390975904       -1.1690821006
 H         -3.9541395461       -2.1080662993       -1.1790543042
 H         -2.5860406910       -2.5192973581       -1.7238625513
 O         -3.6407068039       -1.5187112625        2.7512415384
 H         -3.0271486568       -2.0192251914        2.1805117129
 H         -3.0769406600       -1.1035605231        3.4291256197
 O          0.7470636623       -3.0475771096        0.1078369829
 H         -0.1907970071       -2.9864498351        0.3871453951
 H          0.7722552833       -3.4306455716       -0.7786203108
 O          0.8413471876        2.3533793211       -2.3518077848
 H          1.2876805206        2.2557018353       -1.4916483898
 H          1.5701027761        2.3437381551       -3.0048812308
 O          2.5930117634        2.5427999134       -0.2311710137
 H          3.4026614877        2.2367534954       -0.6840452830
 H          2.6084620665        3.5015114163       -0.2723549980
 O          3.0619783574        1.8052393880       -3.7851299652
 H          3.7654877496        1.9553884821       -3.1341434074
 H          2.9567288583        0.8495910430       -3.8372687075
 O          4.5743886706       -0.7878693730       -1.5779759690
 H          3.7564477317       -0.9871036320       -2.0485862639
 H          4.3972983908       -0.9233634308       -0.6268014819
 O          0.7233292680       -3.2991250009       -2.6779815193
 H          0.4025340149       -3.9336727095       -3.3181795553
 H         -0.0333959092       -2.6963575007       -2.4624917951
 O          4.8093220307        1.8096915427       -1.6322731835
 H          4.7892921671        0.8116221168       -1.6234222058
 H          5.7202973814        2.0631619028       -1.4861290145
 O         -0.1819117310       -2.2806234349        3.3636019554
 H         -0.6837950778       -2.5466439450        2.5834190664
 H          0.7592552201       -2.3868017506        3.1239012386
 O          0.1441444949        3.1859190093        1.1548908280
 H         -0.2745092437        2.7573780318        1.9185299785
 H          0.9494349808        2.6930587932        0.9654019725
 O         -1.7657630929       -0.4850023697        4.4610805745
 H         -1.7727556447       -0.6605397675        5.4019580480
 H         -1.0840504933       -1.0901079693        4.0752018966
 O         -4.8542150974        0.2526957810        1.3048732256
 H         -5.7124703952        0.3466229197        1.7194483592
 H         -4.3622579520       -0.4293784098        1.8550627204
 O         -1.5636483979        2.7562538799       -0.8736544892
 H         -0.9358161077        2.8505681627       -1.6010503067
 H         -1.0245673152        3.0070457020       -0.0885327438
 O          2.3224181333       -2.7201826085        2.3514270659
 H          1.8938193511       -3.1092917830        1.5763207045
 H          2.9513055321       -2.0760432481        1.9864973881
 O          1.4741379403       -0.4795251847       -0.3366577539
 H          1.2538868199       -1.4143458132       -0.1301930617
 H          1.6707751323       -0.4607608716       -1.2894573803
 O          3.7678633979       -0.7079086489        1.0213352343
 H          2.9130307549       -0.4119225000        0.6418563891
 H          3.9375703865       -0.1706626314        1.8436320805
 O         -0.5910437230        0.4670584741       -3.5889415925
 H         -0.1016192651        1.1835073890       -3.1261073566
 H         -1.5202136410        0.7712657335       -3.5790561778
 O         -1.0827843783       -1.5260561739       -1.9881354538
 H         -0.9446985732       -0.8001725400       -2.6497442045
 H         -0.9986571651       -1.0973939557       -1.1250505847
 O         -3.4767159514        2.6411786258        1.4741441385
 H         -3.9728889372        1.8160548823        1.3387491700
 H         -3.0415106350        2.8466510357        0.6398944888
 O          1.9530470355       -0.8609832455       -3.0287967190
 H          1.7239540839       -1.8074218398       -3.0104480365
 H          1.1953102166       -0.4238096098       -3.4431871751
 O         -1.3783920796        1.8219966457        2.9758345722
 H         -2.2119131840        2.1922637420        2.6220974637
 H         -1.6082059622        1.1294082935        3.6118566066
 O         -3.0405551142        1.2309905438       -2.7559732106
 H         -3.5930772668        0.5853342964       -2.2883915458
 H         -2.7333065833        1.8598725460       -2.0890081077
 O         -4.7221481876       -0.4549131746       -1.2659738806
 H         -4.7455704018       -0.1719185686       -0.3240680616
 H         -5.6166758983       -0.3885777171       -1.6011569166
 O         -1.0290938307        0.0848575566        0.5499774262
 H         -0.0760052751        0.1502166490        0.3520446662
 H         -1.2305417373        0.7828149503        1.1862270942
 O          1.2717458960        0.6970808796        2.7177303281
 H          1.1800888366       -0.2249080974        2.9703453466
 H          0.4484704023        1.1355798362        2.9632596549
 O          3.8397440390        1.7181166793        2.1898817628
 H          3.0302349700        1.5334597666        2.6841220220
 H          3.5173864569        2.0653645301        1.3437749786
 O          6.4401768644        0.9328024864        0.4304182698
 H          5.7890249442        1.1906417920        1.0910809283
 H          6.3202694050       -0.0081095178        0.2822193571
  87
       -147.58980202
 O         -0.9106289296       -4.9392274076        0.6602387322
 H         -0.5893762381       -4.8952332180       -0.2631448218
 H         -1.7304559351       -4.4282711609        0.6544072563
 O         -2.2979670741       -2.5151989816       -2.2777869302
 H         -2.6766017090       -2.6488360398       -1.3977660340
 H         -2.3501460178       -1.5711314604       -2.4684109185
 O         -2.8262228704       -1.6749795705        2.6898393884
 H         -1.8238487078       -1.6197817419        2.7021891021
 H         -3.0756232345       -2.0525368921        3.5337597161
 O         -0.2277213392       -1.6147435952        2.6276585035
 H          0.1818526012       -2.4806362115        2.8466349711
 H         -0.1205257527       -1.5983535245        1.5612293031
 O          0.4315215335        2.9536807861       -2.1400316815
 H          1.3872544785        3.1031610250       -2.1691600086
 H          0.1804530513        3.0807470010       -1.2015126047
 O          3.1916810312        3.0220618772       -1.7060001367
 H          3.8712780583        3.5810782812       -2.0830376627
 H          3.5576288249        2.1081287682       -1.6704437898
 O          4.2720864976       -0.6020046287        0.8851343508
 H          3.8135262539        0.0322909931        1.4653444640
 H          4.3129027199       -0.1716744584        0.0150736092
 O          4.2723925535        0.5622914901       -1.6854897478
 H          3.6111070863        0.0566107346       -2.2505287244
 H          5.1132192090        0.4752853595       -2.1360696120
 O         -0.2160211508       -4.3772070743       -1.9218319324
 H          0.6037017447       -3.8647769217       -1.9634458884
 H         -0.9272834368       -3.7743609809       -2.1921496867
 O          2.3787625577        3.4684046062        0.9187692335
 H          1.4186500517        3.5823852124        0.8492689484
 H          2.6940961934        3.3453204829        0.0083504640
 O          3.0472367699        1.3812748818        2.4035553410
 H          3.6290636533        1.7334929463        3.0781610796
 H          2.7854575582        2.1549563106        1.8390894853
 O         -0.3794197403        3.5017177066        0.3955186205
 H         -0.6226262899        2.9994246194        1.2092471070
 H         -1.2065524574        3.9275112095        0.1266986019
 O          0.6323730387        0.7552264930        3.6768614742
 H          1.4964464042        0.9219352637        3.2666941677
 H          0.3589667827       -0.1330278881        3.3803260720
 O         -3.1671143601       -3.0985021355        0.4132872400
 H         -3.0721032420       -2.5423177114        1.2165094192
 H         -4.0156180404       -3.5375090112        0.4770953302
 O         -2.2847812047        2.9105031391       -2.6838665548
 H         -1.3238031333        3.0366450504       -2.7093093817
 H         -2.5784902714        3.3412109400       -1.8678592791
 O          3.1612141375       -3.0058540301        0.7203591562
 H          3.5161420830       -2.0839841150        0.8245545013
 H          3.8534686807       -3.5822578686        1.0472672599
 O          0.9377180527       -3.9971404957        2.4467977641
 H          0.2868790737       -4.4372473125        1.8606515164
 H          1.6745245663       -3.7427766405        1.8769348449
 O          2.3801243931       -3.1983492940       -1.8793598020
 H          2.6607367752       -3.1438536474       -0.9405260716
 H          2.8704212584       -3.9192635466       -2.2762564220
 O          0.2384769910        0.5329247733       -3.5225754604
 H          0.3288116024        1.3901793773       -3.0731269490
 H         -0.6968415211        0.2940517909       -3.4456003366
 O         -2.5835724189        0.2895043588       -3.1120354197
 H         -2.9629274799        0.2122733510       -3.9886145201
 H         -2.5153839239        1.2571673909       -2.9279695396
 O         -3.5660906018        0.9590311588        2.1289986800
 H         -3.8277866429        0.9789423296        1.1818828955
 H         -3.3890886898        0.0287479923        2.3410118619
 O          2.6410151829       -0.7638625792       -3.1935109555
 H          2.4390520796       -1.6186900771       -2.7781483089
 H          1.7851037786       -0.3286992007       -3.3659755949
 O         -1.2324142108        2.3539281297        2.6405346315
 H         -0.5424110018        1.8343435486        3.1118660038
 H         -1.9904044513        1.7517273360        2.5153076533
 O         -3.0091061695        4.2409122373       -0.2908981506
 H         -3.2702389207        5.1475678987       -0.4553837490
 H         -3.2728442693        4.0480463888        0.6509226368
 O         -3.5709596104        3.7663364558        2.2351150309
 H         -2.6826069456        3.6863463488        2.6141603042
 H         -3.9304459242        2.8701806901        2.3028439266
 O          0.1832580960       -1.7281818014        0.0300832677
 H          0.8871509237       -1.0558570214       -0.1416741166
 H          0.5399185702       -2.5974579401       -0.1638464421
 O          1.6450681714        0.4551861767       -0.2695572329
 H          0.8533016627        0.8909502534       -0.6191443344
 H          1.7736409282        0.7993196351        0.6170324102
 O         -1.0635694717        0.7512347476       -0.5218682139
 H         -1.0042830130       -0.2091086423       -0.4817807719
 H         -1.9904694410        0.9773656573       -0.3975557141
 O         -3.9097972021        1.0063221585       -0.7282241451
 H         -4.0174474819        1.9080338475       -1.0433944282
 H         -3.6504967737        0.4803562886       -1.5008498303
