  537
       -906.39568886
 H          0.0682745074       -0.7688358087        0.8535290753
 C         -0.5174039050       -0.2797455907        0.0803350234
 H         -1.4901080862       -0.7673845993        0.0298096675
 C          0.1686571332       -0.4095079328       -1.2696651603
 H         -0.4232950249        0.0494791345       -2.0574514858
 H          0.3141951136       -1.4605250644       -1.4960370451
 O         -0.6472002947        1.0647910253        0.4863419571
 H         -1.1069947892        1.5633748577       -0.2264735107
 N          1.4879619072        0.2392902910       -1.2353002572
 H          1.3962123243        1.2510081581       -0.9891894004
 H          1.9019706352        0.1513982029       -2.1794242809
 H          2.0686357136       -0.2419308585       -0.5143594246
 O         -3.9857269274       -6.1790671450        1.2308995278
 H         -3.4527520908       -6.9600183186        1.4487157977
 H         -3.8100226281       -6.0083176433        0.2868002890
 O          1.5503815882        4.7704186278        4.4999708067
 H          1.7354454538        4.7656782199        3.5305667615
 H          0.6114042883        5.0441651380        4.5340626470
 O          1.8735043464       -4.4188278342       -6.1084284402
 H          1.3322783796       -3.8834120555       -6.7013527145
 H          2.3786224236       -3.7709380978       -5.5916592633
 O          1.5922469765       -5.0076659576        2.4289873898
 H          0.8975871450       -5.6210706281        2.7441426010
 H          1.4030513446       -4.1654483549        2.9021484839
 O         -3.0149327192        3.4499291014        0.8622726925
 H         -3.5995141336        3.6965810883        0.1266321461
 H         -3.0582992169        2.4796728550        0.8805248864
 O          0.0534193390       -3.3355078630        6.1365488396
 H         -0.0685348508       -2.4315160858        6.4795582162
 H         -0.8376192433       -3.7396015508        6.0627039815
 O          6.2292811724       -3.4109301643        1.1843736180
 H          5.5693737007       -2.8719882957        1.6352010650
 H          6.2053436350       -4.2908311628        1.6020587241
 O         -3.3107799433       -0.3174516465       -1.7381547628
 H         -2.6050002487       -0.8598365489       -2.1417349584
 H         -4.0940496815       -0.9146186945       -1.7474439148
 O          1.6221349299        0.0130472988       -8.2515468800
 H          2.3883681199        0.4619805505       -7.8778441564
 H          0.8864587213        0.6398059969       -8.1937078934
 O         -2.3704123298       -3.2886273080       -0.1136661069
 H         -2.0738120889       -2.9305650765       -0.9571345455
 H         -1.8408085164       -4.0976537950        0.0608629123
 O         -4.3972225514        2.0085774809        3.7069285274
 H         -4.7595704644        2.6286965997        3.0500517116
 H         -4.8717637494        1.1660829356        3.5351268954
 O          3.5498766139        1.3317508872       -6.5548324465
 H          4.0747111639        1.9916260162       -6.0687205515
 H          4.0404975214        0.4929468658       -6.4578590946
 O         -1.0369795859       -4.4333564457       -4.7998780322
 H         -0.3794616756       -5.1420662333       -4.6254599760
 H         -0.5494183865       -3.6056201957       -4.6523561095
 O          4.0371157979        1.4654064102        0.1020581050
 H          3.3501872928        1.5555768649        0.7756780538
 H          4.6916550665        2.1692859475        0.2531945665
 O         -0.0376945277       -1.8828955372       -4.6634810964
 H          0.6350783617       -1.2724478239       -4.3147326107
 H          0.1336293892       -1.9521056531       -5.6252480247
 O          1.7334078530        1.3850701085        1.7914233966
 H          1.7629914338        1.6975829334        2.7123488096
 H          0.7933192059        1.3106412471        1.5501961857
 O          0.4319445873        3.3179962605        6.9543985628
 H          0.8144849435        3.9982676914        6.3921786079
 H         -0.5063888003        3.2585545719        6.7180073252
 O         -2.1818689943        3.1655262971        5.8687507099
 H         -3.0977440499        3.4854854649        5.8334190504
 H         -2.2566897228        2.1882433154        5.8537794519
 O          1.7453026710        4.6528069115        1.8667847183
 H          1.6248332811        5.3824503428        1.2350251035
 H          0.9130882811        4.1516528529        1.8710344696
 O         -2.3478640794       -4.4092089792        5.6587337527
 H         -2.4035551750       -4.5654264358        4.6993504517
 H         -3.1967675046       -4.0078557516        5.8779037257
 O          3.4659247550       -3.8275716653        0.4054693120
 H          3.8908586293       -3.2623989389       -0.2480709752
 H          3.6417915126       -3.4282983759        1.2740403833
 O          0.7426119204       -3.1770087197        0.4363882622
 H          1.4674156458       -2.5345577630        0.4647898018
 H          1.0322466263       -3.9161313530        0.9919117514
 O          4.1376574760        1.3680286958        3.3461571827
 H          5.0355139821        1.0238304303        3.1625683950
 H          4.0664984961        2.2188528167        2.8650312809
 O          0.9705363466       -2.8132048429        3.7314233359
 H          1.4465221699       -1.9677270052        3.7622696166
 H          0.6678649013       -3.0190794181        4.6466971247
 O         -1.8326369507        0.3051277005       -4.0504596077
 H         -1.8014481818        1.2687808473       -4.2074079162
 H         -1.6186375057       -0.0891526801       -4.9125441960
 O         -2.5073387110        0.5133312532        6.0722633995
 H         -2.7078028954       -0.0260048346        5.2871003763
 H         -1.7176354702        0.1096324800        6.4686869368
 O         -5.9557479373        1.1370542684        0.2001300776
 H         -6.3172688077        0.2369442244        0.3137566114
 H         -6.4119464734        1.5655889893       -0.5563024987
 O         -2.0169300834        1.2996603554        2.9405825781
 H         -2.2610543818        0.9397877618        2.0777598430
 H         -2.8608112699        1.6088600884        3.3548062217
 O          1.5339270895        2.0451870049        4.3615692063
 H          1.7977502146        1.6975129093        5.2294328073
 H          1.5189243037        3.0175166679        4.4475587253
 O         -4.3410899839       -0.6274378245       -4.4071271308
 H         -4.3066807889       -1.5357108114       -4.7723006356
 H         -3.4289623295       -0.3529370132       -4.1743877201
 O         -8.6940906267        3.3744247052        0.6391394217
 H         -8.3640746926        4.2195172331        1.0147406036
 H         -8.2808983734        2.6537284742        1.1515010226
 O         -3.4618352158        0.7694791488        0.6254648331
 H         -3.2398514163        0.4658058238       -0.2799288063
 H         -4.4236551696        0.9916462215        0.5449961103
 O          3.3636293379        1.9287771397       -2.6312442890
 H          2.4315684939        2.2030843036       -2.6704486437
 H          3.6666382095        2.0300396391       -1.7156895103
 O          1.6120250934        6.5219012105       -0.1070085596
 H          1.6521333555        5.9585873260       -0.9088902795
 H          0.7682679830        6.9824089867       -0.1780183732
 O          3.7522889851        4.3649283359       -0.4257287747
 H          3.6141041530        5.2619334939       -0.0953209115
 H          2.8760013145        3.9473944821       -0.5648086238
 O         10.0674913548        3.7144952953        0.3043004292
 H         10.9577555817        3.3735445260        0.3718362420
 H          9.4547132778        2.9418968942        0.4295710007
 O          8.5459052491       -3.4928992530        2.7158692061
 H          9.4812960163       -3.4263015625        2.9191371330
 H          8.4367363924       -4.2072067428        2.0614471873
 O         -1.7653543080        2.2246536973       -1.6649147013
 H         -2.2969681860        1.5663074464       -2.1199598870
 H         -0.9356154890        2.3228895278       -2.1792448712
 O         -7.6291678727        2.4064944010       -4.3031279375
 H         -7.4556284061        1.4854377698       -4.5988379127
 H         -6.8376801847        2.8809827489       -4.6089477480
 O         -1.6780905328        2.9388348216       -4.4711233952
 H         -1.8027421741        3.2724244981       -5.3685029444
 H         -2.1861032929        3.5219474354       -3.8785375417
 O         -4.9386982183       -3.8711588763       -0.1366818239
 H         -3.9666692299       -3.7500173806       -0.1343536415
 H         -5.2129238402       -3.9098865762        0.7913693304
 O         -2.2513799972       -3.0739914171       -6.9131431537
 H         -3.1784007598       -3.1594872641       -6.6484819569
 H         -1.7631082994       -3.6514371169       -6.3010469115
 O          3.2950139743        5.2253877051       -4.3299189529
 H          3.6944497441        4.3888320988       -4.6431124788
 H          4.0047491585        5.5933287161       -3.7742133976
 O         -4.5682317760       -3.0827305858       -5.4151060761
 H         -4.1489041102       -3.6136196094       -4.7086734808
 H         -5.5161190943       -3.1441076272       -5.2294067117
 O          0.6431968584        2.5107412369       -2.8509168438
 H          0.4513910452        2.4583261383       -3.7950011729
 H          0.8843748513        3.4388615477       -2.6440618989
 O          6.6563682015       -2.9471040457       -5.0110408195
 H          7.4853875989       -2.6291825303       -4.6299244863
 H          6.2535346390       -2.2116602428       -5.5010414747
 O          3.8145103411       -5.0105153058        3.9485555678
 H          3.0284038789       -5.2225038898        3.4046817873
 H          3.4720000413       -4.7562991423        4.8313848633
 O         -5.3596964431       -1.9457872365       -1.8797636843
 H         -5.3082403650       -2.6434438662       -1.1917661970
 H         -5.7093866950       -2.3685306660       -2.6857976494
 O          6.5796559921       -2.1931847579        4.0912147920
 H          7.1457486807       -2.8821016765        3.7112208550
 H          5.7289385872       -2.2545592363        3.6067029578
 O         -4.9582800917        1.5551420966       -2.7371975232
 H         -4.3088900863        0.8648092421       -2.5203570374
 H         -5.8308134817        1.1419152476       -2.6052975845
 O          6.5428418238        5.8393722565        0.0756650295
 H          7.2335692636        5.8432111297        0.7813044805
 H          5.7614110226        6.2732221152        0.4498023972
 O          6.0285004312       -1.6594252295        6.6176050307
 H          6.2319362411       -1.9340660610        5.6903473253
 H          6.2809094492       -2.3875250092        7.1846832172
 O         -0.6887809481        4.4058754930       -0.3870367239
 H         -1.3871849453        3.9178327293       -0.8395057772
 H         -0.8003511700        5.3510688918       -0.5854650191
 O         -8.4355912575       -1.5325703015        2.7312356426
 H         -8.4705687407       -1.0671022639        3.5790590507
 H         -8.3112039274       -2.4996250178        2.9651353461
 O         -1.0924206421        4.9121845943        4.1563944366
 H         -0.8613065257        4.3359495498        3.3864126331
 H         -1.4548890395        4.2927230887        4.8226254314
 O         -4.6573530100        4.3958328273        5.2619490887
 H         -4.6874891857        5.2142682523        5.7563233359
 H         -4.2766748678        4.6076769497        4.3768516348
 O          5.9480893106        4.4000690486        5.2132740546
 H          6.3485901633        4.0151195905        4.3877617485
 H          6.6976714269        4.5998812956        5.7744977004
 O          6.1530682572        3.1801921331        0.1947076853
 H          6.0877373481        2.9388957290       -0.7611799560
 H          6.2167866324        4.1547066872        0.2087695171
 O          7.8758612981       -1.0784481952        1.5110931309
 H          8.0860021997       -1.9574952636        1.8740694525
 H          8.6044813780       -0.8043583121        0.9333669216
 O         -4.9248898120        5.5696756060       -4.3581837122
 H         -5.6087817031        5.6120697409       -3.6583876626
 H         -5.0657433847        4.7190953063       -4.8077611012
 O         -8.9932739239        4.4906874970       -2.9366011754
 H         -8.7501819108        3.8988742819       -3.6581485493
 H         -9.6759317661        4.0353206978       -2.4249016385
 O         -3.2664192470       -4.2641476445       -3.4175630453
 H         -2.4677575768       -4.5568315261       -3.9135256303
 H         -3.4426710496       -4.9208670733       -2.7196760812
 O        -11.4748299732        0.8687743485        0.7929060690
 H        -11.6434352479        0.0625370806        1.2986985802
 H        -10.6149007222        0.6977413150        0.3660320198
 O          9.9717167060       -3.3793323536        0.0387589099
 H          9.8942983844       -4.3049829360        0.2912946195
 H          9.0693508769       -3.1366780500       -0.2933976139
 O          8.3081846278        4.4918476325       -1.6594064444
 H          9.0782024567        4.4984431371       -1.0719199515
 H          7.6283294304        4.9975296109       -1.1927005875
 O          1.5281138296        2.9020183534       -0.4141667302
 H          1.6330924366        2.6655756319        0.5213772512
 H          0.7355650027        3.4719413874       -0.4638423061
 O          5.2470165299        5.3276505796       -2.4859918219
 H          4.7495486862        4.8128081277       -1.8213167907
 H          5.7695160297        5.9520909528       -1.9804920492
 O         -0.9970345655       -5.4633459570        0.4950221640
 H         -0.1234842561       -5.7403648895        0.1788232923
 H         -1.4089687291       -6.2599542960        0.8680411091
 O          4.1158754077        6.6944867943        1.1202077591
 H          4.0828909483        6.5530903266        2.0778134388
 H          3.2553952899        7.0369576856        0.8511142687
 O          4.2365339145       -2.6763899009        2.8333928617
 H          3.6209522816       -1.9990423729        3.1994507484
 H          4.0786729373       -3.5215155649        3.3199549622
 O         -4.6656426828        3.7397823262       -1.2378969608
 H         -5.4354429523        4.3039507024       -1.4572584473
 H         -4.8665266521        2.8814917838       -1.6697915480
 O          6.6783181123        0.7115673782        3.1525062913
 H          7.1628323715        0.0250883698        2.6591724559
 H          6.8467479809        0.5872628555        4.1059228150
 O         -1.1635253349       -2.5190565871        2.2286033605
 H         -0.4037601917       -2.5176455174        2.8472776305
 H         -0.7588682556       -2.7669612647        1.3813668837
 O        -10.5013870606        2.6889806353       -1.3230449154
 H         -9.9029455231        2.8621173396       -0.5758987663
 H        -11.3052481388        2.3395691932       -0.9289353705
 O         -2.0371788603       -0.4234746083       -6.6500847613
 H         -2.0777706882       -1.3936665549       -6.7993386955
 H         -2.9211474527       -0.0642100951       -6.8290554707
 O          2.1472436994       -2.4700271138       -2.2100259208
 H          3.0219402272       -2.2266446510       -1.8653497784
 H          2.1949163737       -2.3705075799       -3.1653766054
 O          8.5720090245        2.8743740696        5.4957570512
 H          9.2467475625        2.8100873236        6.1708033636
 H          7.9404818291        2.1484463991        5.6665351610
 O          7.5686174799        0.3665618105       -3.7726808799
 H          7.9772105727       -0.5167105274       -3.7033023446
 H          8.1371149737        0.9430248313       -3.2125195949
 O         -6.7068914058       -6.6663192997        0.3419766655
 H         -5.8439317852       -6.5085763790        0.7479154469
 H         -6.6498923505       -6.3377907206       -0.5674465902
 O          6.6483549765       -5.3943003270       -1.4520565289
 H          6.1759586634       -5.1524784972       -2.2657776236
 H          5.9461099115       -5.7450733697       -0.8675163868
 O         -5.0977823040        1.3740714564        6.3443802085
 H         -4.2029917229        1.0636100056        6.5475225759
 H         -4.9942053321        1.8971704113        5.5338765467
 O         -4.5278559361        0.7759566797       -6.6240102467
 H         -4.5389905341        0.2848999942       -5.7609600408
 H         -5.3664351694        0.5714851313       -7.0398624829
 O         -6.6148810548       -1.4252082730        0.7424405348
 H         -5.7748766734       -1.7704156855        1.0749226286
 H         -7.2494071366       -1.4081271510        1.4899575340
 O         -7.8510356050        1.2341401024        2.1384804359
 H         -8.3743219991        1.4595502944        2.9322300089
 H         -7.0861722774        0.7252847657        2.4520202721
 O         -6.7841384977       -3.1170572519       -3.8737476652
 H         -7.6705073529       -2.7425544047       -3.8034234088
 H         -6.7800522224       -3.9662831006       -3.3890510105
 O         -1.0154601658       -6.6387661534       -2.2935951987
 H         -0.6231701604       -5.7601971485       -2.0585426129
 H         -0.5742678973       -6.8720703336       -3.1177772741
 O          1.9076438014       -0.1431535727       -3.9411399241
 H          2.6748495636       -0.5555223816       -4.3505187585
 H          1.6719090931        0.6548201182       -4.4495105002
 O         -9.0190934306        0.2006216856       -0.0932376015
 H         -8.5833928894        0.4423186072        0.7439930280
 H         -8.3475674943        0.2770273068       -0.7964894168
 O         -3.5112802819       -6.1800086974       -1.5050543136
 H         -4.0704275751       -6.9039959635       -1.7900761443
 H         -2.5821526886       -6.4352027752       -1.7067043250
 O         -0.0401961898       -0.1673379280        3.9162745731
 H         -0.8498180569        0.2819429229        3.6036147604
 H          0.6182625186        0.5388895568        3.9714800470
 O         -8.9350307842       -0.2996002811        5.1945310303
 H         -9.0271588552        0.6449747537        4.9380123093
 H         -9.6293957149       -0.4803365180        5.8267529124
 O         -8.8734323065       -5.0774604094        0.9694073120
 H         -8.5047200246       -4.4144024649        0.3446463306
 H         -8.3014664134       -5.8545509488        0.8558707038
 O          1.2221715678        2.0228808247       -5.4856685149
 H          0.5370734163        1.8121007621       -6.1639732139
 H          2.0792044852        1.8585228866       -5.9308220900
 O         11.1000973096       -2.0684071277       -1.9907485363
 H         10.8311198680       -2.6941507737       -1.2836812893
 H         11.9874057975       -2.3010276142       -2.2615922959
 O         -2.8080160682       -1.2841179062        4.0506496586
 H         -1.8937552210       -1.5743303362        3.9884732026
 H         -3.1537311850       -1.3901872424        3.1385504602
 O          7.5613502907       -2.9159258253       -0.9585477581
 H          7.0468923688       -2.8823336620       -0.1148190885
 H          7.3165229632       -3.8089662133       -1.2810201607
 O         -7.1827822178        2.6715762171       -1.5363675705
 H         -7.5141658575        2.5610644083       -2.4387530163
 H         -7.8743199772        3.0589558434       -0.9828664491
 O          2.5080011489       -1.0687747255        0.9217308267
 H          3.4628860672       -1.1474238706        1.0592681525
 H          2.2176115185       -0.3570225039        1.5173709795
 O          4.7247286640        2.9805461744       -4.7381233474
 H          4.3729793169        2.6278311273       -3.8925182867
 H          5.6007818260        3.3313748140       -4.5314407520
 O          5.9603931409       -5.8338108437        2.3722927641
 H          5.4318579930       -6.1904113892        1.6355904772
 H          5.3290839646       -5.6660154443        3.0884721964
 O         -2.4009614955       -4.7079072678        2.9631911771
 H         -2.0014436189       -3.8759891910        2.6054961629
 H         -2.9613288504       -5.0965052730        2.2715330487
 O          8.3345214535       -5.5526193503        0.8874156229
 H          7.7295495828       -5.9989740942        1.4937706174
 H          7.8818773667       -5.5608679026        0.0320683626
 O         11.4006105088        0.8982657111        1.6443569501
 H         12.2313396244        1.1435464901        2.0505874948
 H         10.6862441696        1.2561056716        2.2246232767
 O         -1.7713404401       -2.2418371591       -2.6671164239
 H         -1.2563090559       -1.9436657095       -3.4401682478
 H         -2.4462951589       -2.8778292148       -2.9960036066
 O          5.0734460162       -3.9523211425       -3.1744282127
 H          5.0777778750       -3.2611921825       -2.4838084127
 H          5.7285901953       -3.6742556035       -3.8565215655
 O        -11.2708056400       -3.6104068134        0.4772945881
 H        -11.2934372972       -2.9469767685        1.1877765287
 H        -10.6029092943       -4.2668804950        0.7219688734
 O         -9.1596546797        2.1716995922        4.2776136886
 H         -8.5135184895        2.8975309683        4.3667651277
 H         -9.8974255314        2.5108190401        3.7129896801
 O          0.9306355032       -6.1502836953       -4.2573396606
 H          1.4714393237       -5.8462645379       -3.5043205412
 H          1.3669176033       -5.7735154705       -5.0426811209
 O         -6.5462869516        5.4419492734       -2.1950368144
 H         -6.7086965945        6.2357458945       -1.6504951149
 H         -7.4293737465        5.0926439231       -2.4244555621
 O          8.6555943805       -2.0335090053       -3.3041282553
 H          9.5967168928       -1.9999885387       -3.0806304414
 H          8.2092935353       -2.3323412123       -2.4941736137
 O         -5.7793283839        3.2719862557        1.7784340365
 H         -5.9556515462        2.4960146605        1.2098030657
 H         -5.5330222466        4.0098090700        1.2056587535
 O         -0.4423840916       -6.3818216726        3.5200040439
 H         -1.1714083404       -5.7523448865        3.2801036844
 H         -0.4398451724       -6.4238421032        4.4766236339
 O         -0.4872923596        1.5773907205       -7.4286274894
 H         -1.0216534158        2.3802713370       -7.4822428210
 H         -1.0833567342        0.8340915431       -7.1935647887
 O         -0.0015011299       -4.2344965679       -1.9201699601
 H         -0.5319373642       -3.5285739308       -2.3109620626
 H          0.3249295724       -3.8872056713       -1.0690978994
 O          0.5347525874       -2.2243435201       -7.2502203657
 H          0.9806433022       -1.4605327151       -7.6744207499
 H         -0.2698755916       -2.4020174213       -7.7426196419
 O         -5.7381880966       -0.2088510417        3.1872171367
 H         -5.1699624335       -0.8762546728        2.7895353487
 H         -5.9749541490       -0.5332787171        4.0913023458
 O          2.7448926658       -3.9558638154        6.1667231592
 H          2.9886542248       -3.0336968486        6.3290374719
 H          1.7826913957       -3.9781869834        6.2733278721
 O         -9.0077815385       -1.2916731727       -3.5889333891
 H         -9.5143668871       -0.4630256607       -3.7419123152
 H         -9.5088473318       -1.7189219087       -2.8697748461
 O          1.6296597913       -6.2783509821       -0.0624286217
 H          1.9106556787       -5.7607410515        0.7039127178
 H          1.9526848341       -5.8280193408       -0.8652591421
 O          9.8090240534       -0.2016078512       -0.3587391378
 H         10.3135220817       -0.7397986772       -0.9845230639
 H         10.4411377592        0.2544381245        0.2114649443
 O          2.6282933842       -5.1211754329       -2.3112997362
 H          2.2414614357       -4.2226587715       -2.2130241230
 H          3.5192542165       -4.9897180959       -2.6537334168
 O          4.0527029989        5.8258732410        3.8144343344
 H          3.2330963502        5.6831621437        4.3075389276
 H          4.7739042223        5.5076745837        4.3835255979
 O          7.4654614002        3.5350364420       -4.1076058324
 H          7.6898083612        4.1697352401       -3.4083569782
 H          8.2884509792        3.1065374456       -4.3522769848
 O          5.1678630537       -0.7612886212       -5.9385943615
 H          5.8851346303       -0.1728088216       -6.2576440886
 H          5.0733864725       -0.5484582379       -4.9811067293
 O         -0.5539013682        3.3305460851        2.1301597826
 H         -1.0402252039        2.5306521506        2.4363194072
 H         -1.0069995437        3.6317292686        1.3244619864
 O          2.7517383799       -0.8061521710        3.9114403622
 H          2.9445146951       -0.9337019421        4.8619220416
 H          3.1474609762        0.0501956014        3.6606012058
 O         -3.4786202302        5.0614058275        2.9523733023
 H         -3.2996901682        4.3728889351        2.2723432932
 H         -2.6107182034        5.2518000713        3.3599840580
 O         -0.9521425082        7.0545215591       -1.0217712324
 H         -1.9061226392        7.1886571950       -0.9079877706
 H         -0.7977127442        7.0232674902       -1.9754900840
 O          9.3800661980        1.6326460897        3.1983140803
 H          9.1588763037        2.2888174543        3.8831652541
 H          9.2406381108        0.7567589507        3.6287224884
 O          0.8059862119        4.7204538452       -5.5538952623
 H          1.6582567381        5.1383852434       -5.3744005321
 H          0.9715469947        3.7563655329       -5.4828326093
 O         -0.6418865149        6.0050331524       -3.6000879280
 H         -0.2845420363        5.6184262015       -4.4188763799
 H         -1.4559944469        5.5157690235       -3.3912902555
 O         -1.4955779204        4.1442269536       -6.9529967550
 H         -2.0034492233        4.8634435503       -7.3278853228
 H         -0.6494939673        4.5103041876       -6.6413846646
 O         -5.0931200322        5.8939419713        0.9730287482
 H         -4.5016505465        6.0986574578        0.2250330837
 H         -4.5217441167        5.8276872164        1.7587383796
 O        -10.0656339716        1.1530976592       -3.6090648497
 H        -10.2682839316        1.5730296354       -2.7571941722
 H         -9.3942466588        1.7045609672       -4.0243371087
 O          3.3353393312       -2.5055348777       -4.7571478427
 H          3.8608539984       -2.1706046648       -5.4915005246
 H          3.9223790421       -3.1009429992       -4.2530312123
 O          5.9910832136        2.2105570469       -2.1932986473
 H          6.3803608027        1.3779423760       -1.8759271302
 H          6.5939669036        2.6064465252       -2.8380581026
 O          4.2966587521        3.6906651482        2.1486976306
 H          4.0540575092        4.4636442267        2.6894948811
 H          4.0923845863        3.9235955896        1.2211252399
 O        -10.8399685962        2.9434123124        2.4035255752
 H        -10.2229513574        3.3544041770        1.7802295708
 H        -11.2170007605        2.1845536811        1.9116809188
 O          8.4026327977        5.3297925991        1.8803092824
 H          7.9271923410        4.6331146193        2.3671430995
 H          9.1195923554        4.8827665202        1.4081023813
 O          6.7721651886        0.8693231311        5.8410463712
 H          6.6793653434        0.0170903727        6.2876386054
 H          5.9102718682        1.3335945615        5.9488694047
 O         -6.4517043939       -5.1054512814       -2.0347368351
 H         -5.6196207768       -4.8717447898       -1.5947960793
 H         -7.1050077225       -4.5441835042       -1.5681285276
 O         -4.6555304308       -2.9814960194        4.9731475456
 H         -5.3571493227       -2.4369125748        5.3574432939
 H         -3.9450575177       -2.3526041863        4.7294658314
 O         -3.8868959767       -1.6354475955        1.6174715664
 H         -3.2672074082       -2.2536252285        1.2002800481
 H         -3.6916184697       -0.7500105813        1.2340076177
 O         -0.1318652977       -8.3949094990       -0.3781644990
 H         -0.5149724457       -7.9139587504       -1.1339707168
 H          0.6602527204       -7.8862333264       -0.1564300112
 O         -3.6680171739        6.7764164135       -1.1870509307
 H         -4.3573805777        7.3024168441       -1.5972576572
 H         -3.4253807492        6.0757698744       -1.8295114042
 O         -7.8763934270       -3.2729712091       -0.7420542301
 H         -7.3712194623       -2.6004905739       -0.2420406672
 H         -8.7127819077       -2.8319782273       -1.0204789817
 O         -6.9587974907       -0.0658242198       -5.1200800429
 H         -7.6550056546       -0.6782101767       -4.8619258248
 H         -6.1608015641       -0.3240605197       -4.6341330878
 O         -2.9598777947        4.7714222256       -2.8993633833
 H         -3.4852401306        4.2265254725       -2.2567258172
 H         -3.6422177843        5.1075473184       -3.5486624854
 O         -7.1583115933       -0.0074916703       -2.0873885457
 H         -6.5406845716       -0.7248075560       -1.8438423931
 H         -7.8152640222       -0.4193334767       -2.6808835293
 O         -5.3870442921       -4.0373967912        2.6150223553
 H         -5.0689833149       -3.6675171338        3.4708325086
 H         -5.0609110575       -4.9413126126        2.5735276789
 O          9.1095576877        1.8288956485       -2.2081452115
 H          8.7827013253        2.6800630911       -1.8820484947
 H          9.2653362788        1.2605535321       -1.4369177671
 O          4.4730292927        2.2133884437        5.8380740103
 H          4.8779730813        3.0942345188        5.7273683501
 H          4.2422606308        1.9171740137        4.9229207885
 O          2.1722365762        1.2655534753        6.9225074143
 H          1.5424870137        1.9710608216        7.1727659928
 H          3.0302407418        1.7051912823        6.7794188912
 O         10.7486482648       -1.8041580887        2.2222929413
 H         11.0881028107       -0.9329572300        1.9705763353
 H         10.5513723446       -2.2793154216        1.3974924236
 O         -0.0760840281       -0.6446765580        6.4998979441
 H         -0.0345257007       -0.5130291509        5.5161193706
 H          0.6418593820       -0.1208235413        6.8649539134
 O          6.9865686226        1.1555333836       -6.2513889413
 H          7.3173458103        0.9415503134       -5.3535815533
 H          6.6565132020        2.0549741890       -6.2131074047
 O          4.6845367822       -1.9373641854       -1.4134655098
 H          4.8353378185       -1.2493224525       -2.0982715684
 H          4.9796978133       -1.5252362518       -0.5674629947
 O         -6.8815772216        7.4798637346       -0.4520138667
 H         -7.7537868502        7.4213606139       -0.0562150193
 H         -6.2655947003        7.1310607456        0.2104743989
 O         -7.1241953805        3.9462804914        4.0222719767
 H         -6.3962122958        4.0328383373        4.6570501741
 H         -6.7087116771        3.5711896473        3.2205914634
 O         -5.0389318784        2.9595553853       -5.0237129223
 H         -4.8031470429        2.3406633631       -5.7337770472
 H         -4.9011545672        2.4626531712       -4.1902124857
 O         -1.8520799527       -7.8355222450        1.5658077639
 H         -1.3131605840       -7.7061111870        2.3571982675
 H         -1.2667110350       -8.2520111644        0.8926683996
 O         -6.3035886903       -0.8734997233        5.6453766984
 H         -5.9010271073       -0.0583571552        6.0356674444
 H         -7.2644915467       -0.7440088475        5.6700746501
 O          4.5650761640       -6.1897016590        0.0904471194
 H          4.1261728366       -5.3045371240        0.1969051154
 H          3.8746986410       -6.7914287163       -0.1977683104
 O          4.9549081418       -0.1608856025       -3.3598655058
 H          4.4344044877        0.6228747829       -3.0977778021
 H          5.8975884427        0.1098813709       -3.3512791357
 O          1.4924736827        5.0062646085       -2.3674609497
 H          2.2010061566        5.0933662378       -3.0417852844
 H          0.7125355268        5.4637971733       -2.7434923659
 O          3.3527825939       -1.2281744584        6.4666446606
 H          3.0032084180       -0.4432145996        6.9067663594
 H          4.3152356111       -1.2651686151        6.6182853212
 O        -10.1080145419       -2.0222532782       -1.2668536942
 H        -10.6951171146       -2.6004331203       -0.7229714791
 H         -9.9262615267       -1.2209799705       -0.7440482381
 O          6.8092676815        3.3858798903        2.9521514671
 H          5.9608564409        3.5226163622        2.4765992652
 H          6.9078287796        2.4176159216        3.0244529681
 O          9.0952119766       -0.7921091011        4.2402471095
 H          9.6757006917       -1.2698651763        3.6261706148
 H          8.2389507159       -1.2403726588        4.2233959774
 O          8.3022732222        1.8031035766        0.7003351550
 H          7.4794003164        2.3497582777        0.6368176777
 H          8.5002826887        1.6850728183        1.6449932649
 O         -8.0394746430       -4.0165541563        3.2550229627
 H         -7.0821824087       -4.0936930190        3.0895954770
 H         -8.4633135103       -4.4920975910        2.5068773840
 O        -11.0469959481       -1.5008303796        2.2507215834
 H        -10.0616819784       -1.4658194230        2.3384281220
 H        -11.3950586425       -1.6645166511        3.1265125707
 O          6.9942514078        0.0143399228       -1.0211998436
 H          7.3215532993       -0.8871914882       -1.0742493458
 H          7.5577254038        0.4861347993       -0.3881163525
 O         -7.7530763032        5.5734127045        1.8393044493
 H         -6.8259123387        5.6729131802        1.5802325331
 H         -7.7363133263        5.2425108052        2.7501281102
 O          5.1863169137       -0.7849233425        0.9041618102
 H          6.1398199788       -0.8124383020        1.0813839932
 H          4.9615903813        0.1185381890        0.5944764255
