  537
       -906.38938342
 H         -0.5052112056       -2.3974558231       -0.8035548119
 C         -0.1232608074       -1.5942835639       -0.1814850566
 H         -0.7781495070       -0.7261152153       -0.2509830779
 C          1.2671867649       -1.2028799698       -0.6453101272
 H          1.2670663373       -1.0988501741       -1.7241886965
 H          1.9743954838       -1.9637621967       -0.3275530925
 O         -0.1246010200       -2.0941802216        1.1388281436
 H          0.3360815622       -1.4592204100        1.7092596946
 N          1.6474989825        0.0916612937       -0.0666899750
 H          2.6367533889        0.3299886339       -0.2708893951
 H          1.5356238759        0.0738136763        0.9554787226
 H          1.0105550003        0.8194557050       -0.4649803431
 O          7.4011191713       -5.4909350036        1.6196753766
 H          7.9874416764       -5.1136773900        2.2816910834
 H          6.7101781812       -4.8231847291        1.4469550359
 O          5.8213044621       -0.4669132321       -2.2734788001
 H          6.7392238588       -0.2476766497       -2.0400244731
 H          5.7803466554       -0.5529411242       -3.2435530112
 O          2.3011932573        2.6384440771       -1.9603240288
 H          3.0025135176        2.0625947891       -1.6104149222
 H          2.3506377205        3.4837886380       -1.4875672626
 O         -0.1019314883        3.9099316756       -0.2110389200
 H          0.1978533900        4.3989713126       -1.0008444585
 H         -0.8749112761        4.3592622349        0.1465713053
 O          2.9646978800       -0.1095257501       -3.2069127688
 H          2.1022280535        0.3156333261       -3.3734453542
 H          3.6132289855        0.6251074759       -3.2276353452
 O         -2.1713175515        0.1804372684       -2.5147894082
 H         -2.8884061336        0.7358811784       -2.8689830779
 H         -2.5865786623       -0.4390356180       -1.8847787532
 O          0.1017875745       -4.7857487721        1.1907189049
 H          0.0439733653       -5.0073486946        0.2367565273
 H          0.0720122798       -3.8132636205        1.2462050905
 O         -3.2168457360       -1.3783964944       -0.6053589130
 H         -3.3805775465       -0.5398996678       -0.1188161123
 H         -2.7453949392       -1.9736161655       -0.0085245175
 O         -3.1480581953        3.2752064269       -1.0185204725
 H         -2.6068923742        3.2243716221       -1.8300070816
 H         -3.2012155475        2.3891512217       -0.5877554208
 O         -0.1400879152        1.5507896286       -1.4774860174
 H         -0.2992238037        2.3868429502       -1.0071384306
 H         -0.9887535427        1.1393639804       -1.7215151212
 O          6.9804986152        3.8177733622        2.6523687713
 H          7.7961469656        3.3251268746        2.8494979818
 H          7.1611644072        4.3421317482        1.8673013278
 O         -1.4227145515       -0.5658452785        3.1088906542
 H         -1.3505423394       -1.5435351336        3.1846166140
 H         -0.8772531289       -0.1654961143        3.8041980147
 O          2.1266585310        1.1068095067       -6.3124087559
 H          2.6924113322        1.8811449428       -6.4661558020
 H          1.7400446470        1.2178140639       -5.4231419439
 O         -4.3076137622        1.6449486163       -3.1781796157
 H         -4.5937271761        1.8963891863       -2.2811741697
 H         -4.5449699284        2.4000146927       -3.7435356614
 O          3.9120333265       -1.4655907322        0.5672903503
 H          3.7339399258       -1.4923095936        1.5168242473
 H          4.7214230013       -0.9318631947        0.4909658954
 O         -6.2241889642       -6.5796770160       -1.4031757747
 H         -5.4383679909       -6.9932796786       -1.7882732035
 H         -5.8674583454       -6.1253856590       -0.6117500022
 O          0.2325648969       -5.3485852697       -1.3976445968
 H          0.8305871010       -6.1211532432       -1.4986237797
 H          0.7279564962       -4.5995713945       -1.7903076851
 O         -1.2702196795        4.2499873728        5.6940326108
 H         -0.4379768789        4.7173394847        5.5051274128
 H         -1.7925889526        4.3480287843        4.8824964388
 O          2.7643427500        1.8343929371        3.2016597017
 H          3.6831586801        1.7658627865        2.8849764341
 H          2.3010655859        2.2333861575        2.4313248125
 O         -2.0335533198       -3.5084020055       -2.0690988542
 H         -2.2440383947       -3.7293573148       -1.1540087437
 H         -1.8921512816       -4.3522509687       -2.5463553078
 O         -2.5785513633       -3.6343716395        0.8164050363
 H         -2.5139997006       -4.5974128336        0.6811180873
 H         -2.0897027513       -3.4589490608        1.6405307914
 O         -0.0361772892        1.2742667690        4.5167432450
 H         -0.9238455653        1.5141641748        4.8338613018
 H          0.5589811137        1.2114624643        5.2856856474
 O          0.1266869600        3.5821932226       -6.2568034021
 H         -0.8330280136        3.7313584499       -6.3462802607
 H          0.3121373462        2.8450790034       -6.8475858139
 O         -5.7432532881        1.6422564236        4.8309779517
 H         -5.3468034167        2.0961748876        5.5807127377
 H         -6.0732808124        0.7777511504        5.1595332252
 O          3.6033717239        3.4537012516       -6.3797907466
 H          3.3877362325        4.2363976891       -6.8913087382
 H          3.1520224323        3.6019857694       -5.5101095140
 O          4.4981299108        4.5359227658       -2.6615398262
 H          3.8748231620        5.1354213681       -3.1088777213
 H          4.3426186448        3.6376231815       -3.0166778560
 O          2.0805597722       -3.3052877034        2.6427554064
 H          1.3991425100       -3.6785929437        3.2057278016
 H          1.9924547379       -2.3426135584        2.6795042141
 O         -0.6859702496        1.1523026581        1.2102940343
 H         -0.4119539187        1.9809493959        1.6378592316
 H         -0.8485098868        0.5112153676        1.9253321973
 O          5.2590853694        1.7783286675        2.2092239361
 H          5.6161921870        1.1189909127        1.5851166807
 H          5.8575824684        2.5526375961        2.1881196783
 O          1.5209684196       -6.9725330350        1.7767991038
 H          1.0669458236       -6.1178567913        1.6427583625
 H          1.9219030587       -6.9165495655        2.6694131881
 O         -3.1623586315        1.0518709256        0.3965533463
 H         -2.2192063100        1.1159869077        0.6845431915
 H         -3.6987985101        1.3654050697        1.1528600434
 O          4.1369211816        1.0686920293       -0.7571150058
 H          4.6199358868        1.7933220612       -0.3304277727
 H          4.7753942925        0.5186101918       -1.2418579817
 O          5.2567094996       -3.8306638760        1.3178143588
 H          4.3922205226       -3.8651582716        0.8305421704
 H          5.5207698212       -2.9065514662        1.2920996678
 O          0.6359066673       -1.5591738597        4.9297659506
 H          0.0199169477       -1.2250019254        5.6045687869
 H          1.4242794124       -1.8849471979        5.3777895239
 O          7.5785775782       -3.8507688654       -3.2255372970
 H          6.6970529915       -4.0418932207       -3.6206399716
 H          7.9375820215       -4.6897481839       -2.9204264378
 O          3.5547167705       -6.7751902231        0.1760664686
 H          4.2898248554       -7.0508621790        0.7644227316
 H          2.7577071699       -6.9574796997        0.7377713435
 O         -3.7821285278       -2.4531724307       -3.7478316652
 H         -3.2017734377       -2.6791666101       -2.9933299022
 H         -3.9080182697       -3.3024092962       -4.2143715433
 O          1.5712730208       -3.5374803364       -2.7700502686
 H          2.4166278169       -3.1539089779       -2.4293802953
 H          1.0042771841       -2.8095938825       -3.0492035108
 O          4.6460630556        1.9643091037       -3.4553101398
 H          5.4105253333        1.8690453621       -2.8532835499
 H          5.0139311269        1.9233543056       -4.3588377456
 O          6.2510306235       -0.2672983995        0.7704349462
 H          6.9383632312       -0.2966841895        0.0896646787
 H          6.6131497656       -0.6553352858        1.6009570364
 O         -0.4850254372        6.8402249875        1.1552971619
 H         -0.4123083539        7.1269957364        0.2218854728
 H         -1.2215995271        6.2042232975        1.1377026879
 O          2.0364412037        2.6218832167        0.8702161622
 H          1.2482404193        3.0647413894        0.5163980601
 H          2.8023447198        3.0597119148        0.4917799248
 O         -4.8562435259       -2.3955888167        1.7804765092
 H         -5.1741719589       -1.8231859077        1.0517975676
 H         -4.1397811486       -2.9595405476        1.4409658118
 O          5.0936460056        4.3222633183        4.6513049327
 H          4.7776989933        4.4894431060        3.7324566945
 H          5.9760761902        4.6954740029        4.6659423540
 O         -1.4319080795       -1.6255761050       -7.1627295280
 H         -1.8380286829       -2.5010028073       -7.2971868391
 H         -0.6022393439       -1.8367267621       -6.6866392825
 O          1.8463431235        5.7141128007       -6.3686887085
 H          1.3730661005        6.4599475116       -6.7359019690
 H          1.2054830153        4.9775907062       -6.2962070935
 O         -5.0466875964       -3.2754907547       -1.2210129715
 H         -4.9813140783       -3.9444694619       -0.5084686361
 H         -4.3955289360       -2.5736593432       -1.0370777853
 O         -4.4482192398        2.2334462031        2.3807767900
 H         -4.8536417970        3.0139669908        1.9671589144
 H         -4.9854146768        2.0068007844        3.1492773768
 O         -4.2809842181        1.9581380605       -6.2904811293
 H         -5.1580217663        2.0222221154       -5.8883456479
 H         -3.9435379927        1.0826974896       -6.0610954443
 O         -6.8549078498        1.5954277193       -5.1325341871
 H         -6.5815832420        0.6499751032       -5.2147962949
 H         -7.6147338918        1.6871830440       -5.7066291028
 O         -2.4769755877        5.0558830222        0.7433166339
 H         -2.7977183736        4.3786242713        0.0966764373
 H         -3.1688970986        5.7512111787        0.7506522666
 O         -0.4350098929       -1.6793895183       -3.3333724719
 H         -1.0065627476       -2.3731008640       -2.9647432873
 H         -0.9333518448       -0.8548820562       -3.1816307430
 O         -4.0111958262       -0.4825037129        3.3817744429
 H         -3.0463030652       -0.4360971600        3.1882630391
 H         -4.3163561074       -1.2588337175        2.8565888311
 O          2.8278973390       -3.1780565923        5.6640427242
 H          3.4034168670       -3.5898262884        4.9895830066
 H          3.3496547789       -3.1180156563        6.4634754254
 O         -6.6376843119       -0.7435837884        5.6130202978
 H         -6.4027963942       -1.5510867855        5.0994080610
 H         -7.5855812603       -0.6249588326        5.4736259750
 O         -1.7830944117        3.4743219255       -3.3224298345
 H         -2.2826926814        4.1741490301       -3.7949612515
 H         -1.7114816978        2.7268364422       -3.9443338514
 O          4.9337030988        3.5839153915       -0.0799361906
 H          5.8717704841        3.8297602315       -0.0073659633
 H          4.6077250396        4.0418037070       -0.8762439745
 O         10.1856191115       -1.8470107234       -2.1039505131
 H         10.0903217695       -2.7476981906       -1.7025920083
 H         10.0713962799       -1.9280442011       -3.0524727377
 O          5.3735387759       -7.2695441705        2.0556421998
 H          6.1894419009       -6.7438299290        1.9719896624
 H          5.0359452499       -7.1465930272        2.9446545592
 O         -0.5632360371        7.2226640706       -1.4832173519
 H         -1.5159182937        7.1993423358       -1.7041610889
 H         -0.1921698214        6.4399885201       -1.9322400372
 O          7.1265805775        4.6514264128       -2.8362176335
 H          6.1472352181        4.7606362879       -2.8705290583
 H          7.4231858106        4.4063780733       -3.7237178713
 O         -7.5640796518       -4.8671607088        1.8854870474
 H         -8.0762844025       -5.2023238841        1.1225404217
 H         -7.5734668967       -3.8904499963        1.7987203339
 O          2.6194479767        3.3947677555        5.3416367639
 H          2.6274646146        2.8291734814        4.5293386653
 H          3.4913949521        3.8087655540        5.3714526827
 O          8.0398024415        3.2524020650       -5.1061201524
 H          8.7168019018        3.5264370720       -5.7238230230
 H          8.4271919304        2.5109765576       -4.5747639179
 O          1.4815648764        5.3150510047        2.0184740758
 H          0.8042930100        5.9596862485        1.7125729820
 H          0.9927695592        4.4802438895        2.1888978553
 O          5.7746607756        1.9451690776       -5.8818840978
 H          5.1004044857        2.5326554841       -6.2650207618
 H          6.5755848313        2.4760754795       -5.7233619776
 O         -1.5403260736        1.4307054137       -5.0880187518
 H         -1.2108431412        1.4130792734       -6.0081913619
 H         -2.1992264027        0.7113508362       -5.0371295008
 O          8.8894981331        1.2821182836       -3.5335639824
 H          8.1275776102        1.4776956505       -2.9354078265
 H          8.7764183059        0.3551876042       -3.8067509953
 O          3.7225590422        7.3034608819       -1.2760016823
 H          3.0015373759        7.9605414927       -1.2046054557
 H          3.8887984026        7.2087234520       -2.2192543850
 O         -3.9752231218        3.2948282158        6.3913767905
 H         -3.3767812911        3.9681378939        6.7216503490
 H         -3.4194631113        2.7173591808        5.8154960043
 O          3.6097024681       -0.1541016044        5.5487343856
 H          2.8373170588        0.1979407914        6.0104249063
 H          4.1711632353        0.6168863637        5.3338256600
 O          0.6801422877       -2.3188308105       -5.6640962905
 H          1.6215781864       -2.0500246951       -5.6783812882
 H          0.2941000806       -1.9937027675       -4.8257103394
 O          0.7976906773        1.2163202595       -3.9105962971
 H         -0.0887589361        1.1667545376       -4.3221820540
 H          0.6200620678        1.5128108791       -2.9901619768
 O         -5.9816760216       -0.8103135024       -5.6875936498
 H         -5.0142017484       -0.7737290769       -5.7313329676
 H         -6.2196029587       -1.7516383859       -5.6727940735
 O         -6.6612837856       -0.0379543341        2.6071183296
 H         -7.3584528470       -0.0339108931        3.2963880470
 H         -5.7899242474       -0.0325234445        3.0241851366
 O         -1.0202373067        2.0886466551        7.2589803517
 H         -1.0957576734        2.8589473429        6.6483473095
 H         -1.6158953495        2.2660562041        7.9862570396
 O         -4.3662141725        6.8882984364        1.0224785776
 H         -4.2611119627        7.1253173324        1.9900872196
 H         -4.4091704990        7.7048261117        0.5270981195
 O         -0.2672318545       -7.9412032124       -0.0814698915
 H          0.3049296527       -7.8208952455        0.6928597292
 H          0.3237831432       -8.0428938286       -0.8340395542
 O         -1.2725749398       -3.6051659767        6.6770602351
 H         -1.1984441697       -2.6579563445        6.8480080468
 H         -2.1489434870       -3.7434385722        6.2907120288
 O         -0.3580699677        0.9775220386       -7.4623950165
 H         -0.7633524817        0.1178005637       -7.6406586003
 H          0.5667629900        0.8001594229       -7.2162874805
 O          7.6108418474        2.0622135950        0.5436628603
 H          8.3078995370        2.7358992035        0.6035106333
 H          7.9890340289        1.2554940481        0.9141718535
 O         -5.3163408509        3.9899553311       -4.1182468433
 H         -6.2238098071        3.8120684514       -4.3685383424
 H         -5.3387766130        4.3655959088       -3.2016529977
 O          8.1619011263       -2.5219497186        0.8281429709
 H          7.4292652169       -2.5790653446        0.1671267761
 H          8.4456183094       -1.5982661628        0.8838902848
 O         -7.7730472306       -2.2270566399        1.6087117770
 H         -7.2569311161       -1.4482913873        1.9019067107
 H         -8.6917564743       -2.0894357435        1.9169319630
 O          6.7475140985       -3.9455572093        4.9820597774
 H          6.5750846208       -3.0942814341        5.4150118169
 H          7.4961906809       -3.8046504838        4.3738437357
 O          4.1744429189        4.8834687067        2.1905923078
 H          4.3857071768        4.2831912675        1.4480336862
 H          3.2191249266        5.0489999898        2.1693456825
 O          2.5990033829       -6.2946736142        4.1115846525
 H          1.8480438540       -5.8522286513        4.5239114308
 H          3.2786896504       -5.6086807785        3.9763111258
 O         -6.3879926283       -3.5157980295       -5.6878280006
 H         -5.7885570373       -3.9616207323       -6.2872764404
 H         -6.2824906792       -3.9468698679       -4.8217354216
 O         -2.2707505088       -4.1857139471       -6.8202559095
 H         -2.9132121195       -4.4883735796       -6.1669297712
 H         -1.4396815484       -4.6186869316       -6.5873226335
 O         -8.6038346143       -3.8648064393        4.1999441427
 H         -8.4362697161       -4.5229766372        3.5060699523
 H         -9.3310297428       -3.3179629283        3.8899719891
 O          0.3109047120        4.9824112929       -2.6631810632
 H         -0.4649528889        4.4398773366       -2.9231120413
 H          1.0524191313        4.6304804576       -3.1903648282
 O          5.4568425600        1.6656250777        4.8155359664
 H          5.3505268390        2.6321839906        4.9232573974
 H          5.4049229000        1.5459653751        3.8357286640
 O         -8.2673768291       -0.5781700683       -2.8606489275
 H         -8.4993500941       -1.4731877250       -3.1617800183
 H         -7.2937163736       -0.5545259229       -2.9297064607
 O         -5.5819511326       -0.7075517402       -2.7738852072
 H         -5.0470251395       -1.4271958638       -3.1528070435
 H         -5.1572330097        0.1218988070       -3.0579680575
 O          1.5756602351       -0.5113613661        2.7053269802
 H          1.1533725055       -0.7792590763        3.5462707870
 H          2.0653648653        0.3034695488        2.9441638811
 O         -8.6243693394       -5.3953284831       -0.5124386967
 H         -8.2939831279       -4.5182897523       -0.8111871884
 H         -8.0443302123       -6.0524140384       -0.9129385212
 O          9.2953638205        2.3591153624        3.0264091200
 H          9.2958949766        1.5275332965        2.5091324648
 H          9.7905656955        2.9899148243        2.4895036581
 O          5.6019068593        6.7513951886        0.7256628861
 H          4.9868667061        7.0323455750        0.0312943464
 H          5.0810484844        6.2362552825        1.3673499686
 O          3.7988178395       -2.3938092016       -2.0602089795
 H          3.6351917468       -1.4946607401       -2.3895793598
 H          3.8676957924       -2.3185709667       -1.0945598492
 O          7.9315176756        0.7708392749        4.9173663682
 H          8.4357263146        1.4594225719        4.4636382805
 H          7.0214217679        1.1402379217        5.0032239679
 O         -1.1821881329       -6.0940833779        3.1638319133
 H         -0.6500332980       -5.8384924484        3.9216707836
 H         -0.7783627787       -5.6471689333        2.3926068712
 O          8.8216750789       -3.4607590483        3.2278743013
 H          8.4009259678       -3.0771292619        2.4306116609
 H          9.1487721608       -2.6936323263        3.7197155851
 O          5.9675128714       -1.5048783104        6.0450214649
 H          5.0871889059       -1.1005451532        5.9669769845
 H          6.5941337011       -0.7858404637        6.1384835863
 O         11.2023450062       -2.9872802146        1.5534283067
 H         11.0358320997       -3.5595143181        0.7918452765
 H         10.5464915650       -3.2446165887        2.2162871885
 O          1.5783877756        1.3356198927        6.6833542424
 H          0.8314880076        1.5929174472        7.2382528969
 H          1.9996319742        2.1653169056        6.3781035688
 O          1.9212411214       -7.2966231859       -1.9826814411
 H          2.6663310883       -7.2706461391       -1.3618298374
 H          2.2293957630       -6.9033648876       -2.8197859688
 O          2.8874686789       -4.0952903213        0.1956940859
 H          2.4417646740       -3.8853485507        1.0383921910
 H          2.9369465177       -5.0606487106        0.1308957746
 O          9.7982074076       -3.9959338206       -0.6703199463
 H          9.1993349884       -3.5120268307       -0.0568582360
 H          9.2834430289       -4.7741824388       -0.9476249388
 O         -5.2265996021       -5.1525533767        0.6753603060
 H         -6.0705436603       -5.0550126635        1.1715934533
 H         -4.5653157284       -5.2845554408        1.3761630906
 O        -10.9519920021       -0.4966900211        0.2047895866
 H        -11.5158303100        0.1757786179       -0.1775439610
 H        -10.8498603874       -1.1985860424       -0.4671488919
 O          4.4628293655       -4.3098378048        3.8132646801
 H          4.7018410630       -4.2554152671        2.8618602852
 H          5.3308558764       -4.2874243030        4.2939004098
 O         -3.6321792741       -6.6674703827       -2.1316040885
 H         -3.2591049103       -6.4925488802       -1.2476557912
 H         -2.8897256355       -6.9533442598       -2.6683701495
 O         -3.7269685387       -5.4505760241        2.8845552370
 H         -2.7856678314       -5.6762193659        3.0582764835
 H         -4.2149043188       -5.6635277322        3.6781011467
 O         -7.2020679934        2.1731825386        1.2612292424
 H         -7.9761914996        1.9105010959        0.7509316649
 H         -6.9119797658        1.3479816389        1.7063823231
 O         -7.2761649387        3.5112101242        3.5936600087
 H         -6.8891897439        2.7843924303        4.1152406394
 H         -7.1567295901        3.2458710307        2.6596150643
 O         -3.5679296477       -3.4074961175        5.1421165717
 H         -4.4531012966       -3.5320125924        4.7602145602
 H         -3.6253585519       -2.5182923236        5.5476543640
 O         -1.5626099437       -3.1805006493        3.3572506618
 H         -0.7991111162       -3.5500030739        3.8230132556
 H         -2.3398260281       -3.3349177994        3.9360968810
 O         -4.0313041406        7.2854116912        3.5600223099
 H         -4.4602227359        6.5051527734        3.9485058109
 H         -3.0841368041        7.1994601986        3.7615203074
 O         -5.5744510038        1.9184669716       -0.8233066016
 H         -5.4687515740        0.9902458077       -0.5307912657
 H         -5.9867117159        2.3488152304       -0.0523647183
 O          1.0015692460        5.4759817557        4.7733662187
 H          1.2415352087        5.5616851959        3.8358215400
 H          1.5953448455        4.7772722822        5.1088674898
 O          6.8769059300       -1.2203930079        3.1284280729
 H          5.9298227550       -1.3695654165        3.3338001382
 H          7.2009896748       -0.5707639955        3.7641812771
 O         -0.0340700261        3.2598305241        2.7748539099
 H         -0.8763250588        3.6698064314        3.0086085434
 H          0.1483048030        2.5872725082        3.4669614326
 O          2.5145993603        5.0000770555       -0.5593303093
 H          2.9725586338        5.8082058289       -0.8487502014
 H          2.1148898677        5.1972697303        0.3007792795
 O          9.2033415454       -0.0100249093        1.6592989313
 H          9.9938246487       -0.1463568849        1.0852471283
 H          9.3827612723       -0.4974704897        2.4819000574
 O          4.2332267424       -1.5440944414        3.3195666180
 H          3.8593206656       -1.0639909639        4.0778223190
 H          4.1006937030       -2.4892328787        3.4901186862
 O          7.9518308250       -5.9322318763       -1.0812887355
 H          7.0048712266       -5.8521146510       -1.3001242912
 H          7.9454462640       -6.0424799365       -0.1179117635
 O         -3.8655864272       -4.9820501325       -4.6205714842
 H         -4.6396583424       -5.2391395713       -4.0949616770
 H         -3.0997390075       -5.3759778679       -4.1737133642
 O         -3.0971638650        6.7503591622       -2.2407301663
 H         -3.0107556210        6.4720956100       -3.1608449109
 H         -3.8343420751        6.2268431663       -1.8900479732
 O         -5.1322829818        4.9311059504       -1.6725880244
 H         -4.5484984111        4.2383385942       -1.2933330718
 H         -5.9529149167        4.9196700464       -1.1682271453
 O         -7.6910803953       -2.9035040047       -0.9326834611
 H         -7.7263132365       -2.5738715425       -0.0077786727
 H         -6.7381333695       -2.9363192068       -1.1464047461
 O         -8.5910689452       -3.1525978800       -3.7734836269
 H         -8.3876281721       -3.1343473128       -4.7119332864
 H         -7.8724887838       -3.6705914167       -3.3710331075
 O        -10.7639542665       -4.0329692089        0.6872043389
 H        -10.7875353581       -3.5043954335       -0.1274728859
 H        -10.2017228604       -4.7851942302        0.4674158682
 O          7.3400395160        4.9633102320       -0.0983735207
 H          7.3952359279        5.0281971566       -1.0620243457
 H          6.7912797046        5.7346764831        0.1904889665
 O          3.1619128290       -1.2803833821       -5.5502290945
 H          2.9122272951       -0.5031898682       -6.0801666794
 H          3.0908386211       -0.9614433206       -4.6167870608
 O          4.9720666010       -4.2788923768       -3.7462481417
 H          4.5802625230       -3.4592802665       -3.4053043926
 H          5.0261972504       -4.8453657364       -2.9480938301
 O          1.5556990321        8.8942139801       -1.2597466504
 H          1.3462331780        9.5419858093       -0.5873725034
 H          0.7464395771        8.3695231915       -1.4075880839
 O         11.2603246724       -0.6660840736        0.1307159327
 H         11.0148695165       -1.0681428620       -0.7185893859
 H         11.4590316822       -1.4304711873        0.7066356139
 O          6.3883952785       -2.8047089699       -1.0508162967
 H          6.9207831952       -3.1762767153       -1.7798008617
 H          5.9837732280       -1.9962939568       -1.4205309516
 O          6.8970223975        2.1218953410       -1.9913061879
 H          7.0337560377        3.0662183603       -2.2120036527
 H          7.0876859244        2.0408944759       -1.0287608802
 O          5.3196209561       -5.3474629524       -1.3553843727
 H          4.6888176999       -5.8522329851       -0.8225629483
 H          5.4428515089       -4.4814433970       -0.9286120478
 O         -5.5668136138        4.4036380424        1.1999841864
 H         -6.4282420238        4.3906382401        0.7616207726
 H         -5.2627035593        5.3202309433        1.1999441800
 O         -9.8821910316        2.7043582615        0.2960367022
 H         -9.9102677967        2.2094767552       -0.5593682757
 H        -10.6681924498        3.2500050677        0.3136484450
 O          5.7489757400       -0.6548364134       -4.9954217390
 H          5.7881609080        0.2043002211       -5.4427074878
 H          4.9390322030       -1.0936904962       -5.3148028255
 O          8.2538048340       -1.3325970629       -4.1715053608
 H          8.1128547775       -2.2334595059       -3.8428260656
 H          7.4361166273       -1.1283810616       -4.6518566793
 O         10.1663191092        1.7202500722       -1.1273868117
 H         10.0491197263        1.6304640757       -2.0883386095
 H         10.8712183790        1.1247519098       -0.8517704842
 O         -1.3995548253       -5.6892878444       -3.4854096273
 H         -0.8407586670       -5.4610967716       -4.2601590919
 H         -0.7775360538       -5.7919565779       -2.7346494559
 O          2.0550872825        3.6885001125       -4.2793452041
 H          2.2058769752        3.1032948345       -3.4907409388
 H          1.2792002491        3.3526849557       -4.7505670853
 O          9.7185022229        3.8072886988        0.6675609747
 H          9.1275717924        4.4916096946        0.3180667222
 H         10.0748413269        3.3100974648       -0.0829867740
 O         -5.7661822171       -0.6565573118       -0.0945928699
 H         -6.7095023730       -0.4583747346        0.0549039276
 H         -5.6830143917       -0.8574926558       -1.0475001147
 O         -2.3498719052       -6.2990299891        0.2598274217
 H         -2.7404520766       -6.7005991557        1.0391733476
 H         -1.5408073716       -6.8278781592        0.0742249802
 O          8.2584125830       -0.3012613144       -1.0989981500
 H          8.7874207036        0.5030682434       -0.9746457387
 H          8.8660489687       -0.9471036426       -1.5143435541
 O          9.7961075572       -1.0489057528        4.1554324817
 H         10.6573711035       -0.9210126552        4.5520871661
 H          9.1612135913       -0.4836691953        4.6291572734
 O         -8.3076973553        0.0830406354       -0.2149706111
 H         -9.1989678763       -0.0929509584        0.1167986529
 H         -8.3214648680       -0.1497931033       -1.1641259594
 O         -2.5062014861        3.8296017583       -6.8732410531
 H         -3.1268345323        3.1178562779       -6.5816456422
 H         -2.5948320335        3.8713064978       -7.8249644645
 O          0.1811707589       -4.9729081710       -5.5211844140
 H          0.3981078530       -4.0202853064       -5.5979836972
 H          1.0136904251       -5.4125801485       -5.2936957362
 O         -7.4220717176        2.5327502030       -2.6322540288
 H         -6.7700161505        2.1716132871       -1.9872385790
 H         -7.2207033539        2.1075403381       -3.4837182109
 O         -2.6199826179        4.1763483656        3.2479689415
 H         -2.6009475183        4.4645659162        2.3111498256
 H         -3.5098507175        4.4399417022        3.5636946738
 O         -3.8878703192       -0.8731223102        5.9654142553
 H         -4.7684051879       -0.7983308365        6.3441543978
 H         -3.9948628228       -0.6817341656        4.9975235030
 O          0.4975024949       -4.4450171116        4.8863792967
 H          1.2983168419       -3.9930085708        5.2038591855
 H         -0.1542528808       -4.2645527550        5.6014291865
 O         -8.8730153099       -0.1622589435        4.0917966926
 H         -9.2520208990        0.7052503409        3.8225210737
 H         -9.4690056027       -0.8305954807        3.7366957492
 O         -2.6803967218        1.8394364317        4.5750115959
 H         -2.6990006256        2.5546595171        3.9065711884
 H         -3.2930218330        1.1755607081        4.2412942384
 O         -7.7424447453        4.3652140741       -0.5770925561
 H         -7.7096774180        3.8652753523       -1.4064318925
 H         -8.4564103198        3.9480941355       -0.0731501186
 O         -6.0662391386       -2.9310005069        4.1733713814
 H         -5.8312244478       -2.8332307931        3.2338841058
 H         -6.9577976406       -3.3291607438        4.2148170952
 O          2.5291670300       -5.6459504186       -4.1246893419
 H          2.1439552901       -4.8824108769       -3.6476923766
 H          3.4407098462       -5.3766010309       -4.3057435467
 O         -4.9896874835        4.8181861493        4.3216759023
 H         -4.8391838041        4.3568209197        5.1644719070
 H         -5.8531438341        4.5104642653        3.9799145320
 O         -1.3306929947        6.8789477585        3.8358742588
 H         -0.5886792015        6.6184638204        4.3911378608
 H         -0.9629700884        7.1192328659        2.9769432850
 O         -6.2257539504       -4.6042428825       -3.1791269523
 H         -5.7035642069       -4.0134693826       -2.5984856018
 H         -6.3644477507       -5.4036024322       -2.6230807633
 O         -3.0846399797        5.3544900319       -4.7070521256
 H         -2.8100976719        5.0636144991       -5.5898616439
 H         -3.9783434971        4.9825089335       -4.5922126796
 O         -9.8947983309        1.6193024803       -2.1356892904
 H         -9.0478456437        2.0572980033       -2.3675832383
 H         -9.7450781006        0.7090692883       -2.4189264058
 O         -1.2657852100       -0.6626135769        6.6385577685
 H         -2.2112148929       -0.7036537085        6.4132166052
 H         -1.1116255604        0.2532254426        6.9118597751
 O         -3.2140098278       -0.5793094589       -5.5030135283
 H         -3.3154072588       -1.2530047032       -4.7942348598
 H         -2.6061563974       -0.9742705870       -6.1712702338
 O          2.8420762318        6.3695590268       -3.8329754578
 H          2.5983132043        6.1121504646       -4.7395475083
 H          2.0171599381        6.4236630939       -3.3419678536
 O        -10.2743263635       -2.4539788736       -1.5426949542
 H         -9.3086230769       -2.5327203346       -1.3941060387
 H        -10.4025509185       -2.7666839588       -2.4407841814
 O        -10.3057003542       -2.0496108537        2.4103939732
 H        -10.5627149142       -2.8728483828        1.9364551312
 H        -10.6867189098       -1.3472830273        1.8625978343
 O         -9.6730388642        2.1896505170        3.1289340758
 H         -9.7348073686        2.2712814929        2.1677067397
 H         -8.9799374644        2.8146411017        3.4055967132
