  462
       -779.00849927
 H         -3.3354648053        0.3110832011        0.3302832968
 C         -2.3623535630       -0.1127678423        0.5739395980
 H         -2.3413695681       -0.3488092901        1.6325289265
 C         -1.2844887618        0.9061010457        0.2234988812
 H         -1.6650656293        1.8994596814        0.4278793691
 H         -1.0561650458        0.8249710325       -0.8353093782
 O         -2.1977834287       -1.3412394184       -0.1245826624
 H         -2.1810436578       -1.0993480651       -1.0691249605
 N         -0.0246668914        0.6927556588        0.9484661357
 H          0.7668902637        1.2026125872        0.4553211411
 H          0.2337825627       -0.3143504216        0.8860991694
 H         -0.0593193362        1.0162125085        1.9311350227
 O         -0.9039027695       -2.6621512176        1.9130585790
 H         -1.3968124653       -3.3466878667        2.3894891777
 H         -1.4142731191       -2.3795480115        1.1375567664
 O          0.9271936482        3.9050650872        1.0218552292
 H          1.0397112434        4.3972588980        1.8536816395
 H          1.8058903722        3.5249926725        0.8331234071
 O          2.0543365869        1.5526450900       -0.4070316524
 H          1.8965606904        2.1436480044       -1.1644466106
 H          2.2762455986        0.6963925735       -0.8180906119
 O         -2.1394974896       -6.8495366534        0.5127404993
 H         -2.7376701397       -6.7232209814       -0.2399812710
 H         -2.6848509848       -6.7060284879        1.2981241231
 O          1.6129620121       -2.9260676861        2.9488262252
 H          0.7164457862       -2.8664127166        2.5899268142
 H          1.5354730909       -3.0979736379        3.8997614100
 O         -3.3139772355       -1.8818703285        3.5290070763
 H         -2.4862774027       -1.4721122757        3.8290388592
 H         -3.5091593026       -2.6036884276        4.1580967612
 O          4.3222443106       -2.6512995821       -0.5593880240
 H          5.0202655059       -2.7813191282       -1.2371252794
 H          4.3300811129       -1.7050863723       -0.3071250073
 O         -4.2349566326        1.7402362900        6.8218327977
 H         -5.1096141069        1.5303577476        6.4596643149
 H         -3.9162723516        2.5120377348        6.3264201438
 O          1.1124905639       -1.6625869111        0.4138381227
 H          0.7218700974       -2.5222917731        0.1759504679
 H          1.6853377371       -1.3979642675       -0.3274109766
 O         -0.3126126153        4.3445674587       -1.3229787191
 H          0.0374910645        4.3619953510       -0.4138955111
 H         -1.0960048510        3.7699611576       -1.3309728618
 O         -5.5923625894       -0.9668316704        1.2056224604
 H         -5.2352552929       -0.2818357741        1.8007525500
 H         -5.9206752785       -1.6512165798        1.8077455770
 O          3.6489301480        5.1770777897       -2.3599185412
 H          3.3633225279        5.8000171203       -1.6679583801
 H          3.3067399011        5.5398951480       -3.2068260449
 O         -0.1474889437       -4.0165046535       -3.8308080547
 H         -0.6642993517       -4.7357967625       -3.4272210330
 H          0.6690115905       -4.4307416569       -4.1671129360
 O         -2.7559890037       -2.6164572853       -3.1497326836
 H         -2.7897449445       -3.3162003007       -3.8230318857
 H         -2.7472823935       -3.0834369100       -2.2867169499
 O          0.1755911902       -3.9033346223       -0.6839619737
 H          0.3389037277       -4.5024854114        0.0729025940
 H          0.9560021124       -3.9784427158       -1.2722210648
 O          2.3686690381       -3.6055654214       -2.2042496644
 H          2.2555225917       -3.0959863427       -3.0273996938
 H          3.0359720348       -3.1418454179       -1.6625781366
 O          1.2426647273       -7.7987221495       -4.2293924447
 H          0.6402510359       -8.3808254792       -4.6907977918
 H          0.9268966144       -7.7235001957       -3.3160263610
 O         -3.5573492834        4.1511318164       -0.0988061763
 H         -4.3196201123        4.6550322462        0.2340475538
 H         -2.8717826297        4.1093767886        0.5930301042
 O         -7.0825231903       -1.5878794633       -4.3777286253
 H         -7.3553083385       -2.3739596054       -3.8881330735
 H         -7.4206480186       -0.8157945194       -3.8886777769
 O          1.6897879606       -1.9122327945       -4.2816819248
 H          1.5423512473       -2.3415683260       -5.1440881233
 H          0.8164315918       -1.8943739862       -3.8444769928
 O         -1.6299066989        3.6617780104        1.7205084510
 H         -1.6660282458        4.3880695277        2.3757788244
 H         -0.6888349165        3.5964637539        1.4711864454
 O         -5.6105415918        5.7929062179       -2.5486246153
 H         -5.3092287737        4.8593001379       -2.6355880032
 H         -4.7919245225        6.3059929136       -2.5488316844
 O          4.6906848227       -2.0300856490        2.6119014310
 H          4.4169062998       -2.9065585036        2.9412484862
 H          3.8767579557       -1.5397211008        2.3853101373
 O          4.0230600764       -3.0439663000        6.3270830164
 H          4.5744462643       -3.0553346032        7.1074337442
 H          4.1728681664       -2.1702193102        5.8741608564
 O          7.6395908899        1.3942185648        0.6008263284
 H          8.2245517294        0.8391725412        1.1349950300
 H          7.1919337857        1.9974521462        1.2087162113
 O         -1.3375515685       -3.3375450745       -6.0923765740
 H         -0.9114934312       -3.4645409214       -5.2070592146
 H         -0.5804154275       -3.3114488906       -6.6893888315
 O          6.7471791903       -0.4022512344       -1.2233663500
 H          6.9291995539        0.3784716267       -0.6726448685
 H          7.5830739389       -0.6009585181       -1.6921798182
 O         -4.7259124726        0.3920578170        3.3040597602
 H         -3.9739863090        1.0111435567        3.2369991707
 H         -4.3151292354       -0.4701253227        3.5188465777
 O         -2.3713334463        2.6741596839       -1.9932310726
 H         -2.4735712387        1.6976148673       -2.0263984925
 H         -3.2807071030        3.0246698862       -2.0316902983
 O          3.0523557659        2.1438585881        3.2734487961
 H          3.5670637030        1.3254185239        3.2118640247
 H          3.1691584555        2.5749144191        2.3971292132
 O          3.6478525119        6.0976466716        3.9357575627
 H          2.6957229062        6.0122111226        3.8027932939
 H          4.0230292866        6.1704460099        3.0406104924
 O         -2.7368935685       -1.0489819508       -6.5510175754
 H         -3.5216424957       -1.1442725596       -5.9773994941
 H         -2.2700381831       -1.9065651608       -6.5076692623
 O         -2.6526663252        0.0984879190       -2.4300070478
 H         -2.2557134078       -0.0041495995       -3.3156978277
 H         -3.6191753955        0.0639054459       -2.5101277054
 O          9.6255027913        3.9620663469        0.8230252381
 H          9.9458669496        3.4858303554        0.0306354780
 H         10.2892961746        4.6167878614        1.0404535197
 O         10.1717327788       -2.3178470984       -0.4148465609
 H          9.6432009176       -3.1299213874       -0.4770361739
 H          9.8167964546       -1.8594236617        0.3707993715
 O         -3.2144081954       -4.7864019044       -4.7263468971
 H         -2.6970230433       -4.4741897448       -5.4852996529
 H         -2.6512572957       -5.4064411066       -4.2386368712
 O          2.5256746231       -4.1852119769        0.7986703986
 H          3.1547082448       -3.5787121137        0.3844786216
 H          2.2760696749       -3.7849736109        1.6523183033
 O         -4.8461750246       -2.2538365007       -1.2188234790
 H         -5.1281459159       -1.3606512190       -1.5222308135
 H         -4.1405248372       -2.0790191256       -0.5814614474
 O         -1.7930649151        5.5025148986        3.6638899084
 H         -2.2920631855        4.9310366147        4.2820510083
 H         -2.4431352299        6.0662692272        3.2207900987
 O          0.0908237272        0.5576948427        6.7737910066
 H          0.7678906909        0.7136474526        7.4349235255
 H          0.5656627668        0.2236149305        5.9919505482
 O         -6.2944168874       -3.6597794880        0.5980339100
 H         -5.9864714528       -3.1997593490       -0.2049527643
 H         -6.2086243915       -4.6288747158        0.4716853036
 O         -8.3499118765        0.8083601338        3.3974730062
 H         -8.4304092369       -0.1594635292        3.4472588034
 H         -9.0598258174        1.0753136948        2.7905020907
 O         -4.1100946342       -6.6161939470       -1.4967877067
 H         -4.4371639523       -5.7864171595       -1.9113433686
 H         -3.8762547992       -7.2078265894       -2.2121654355
 O         -0.9139411555       -0.4798558073        3.4716181184
 H         -0.7944869060       -1.2640775929        2.9017992336
 H         -0.0922040157       -0.3871167248        3.9793680594
 O          7.4013126056        2.7553751784       -1.6872456926
 H          7.7699565650        2.4872156047       -0.8319324648
 H          7.9881976900        2.3593050004       -2.3621010680
 O          0.8232847020        0.1764746585       -6.5403392771
 H          0.4906771542        0.9817372253       -6.9536106126
 H          0.2181458127       -0.0083084187       -5.8009502329
 O          6.6866679105        0.9865967391       -4.4148534009
 H          6.0430523474        1.6875139850       -4.2322718039
 H          7.5607329512        1.3608464935       -4.2624680747
 O         -6.3587142627        0.8916157050        5.3239801617
 H         -5.7798151650        0.7852506152        4.5317614798
 H         -7.2436666346        1.0181955953        4.9653784773
 O         -4.7403656884        1.7318231916        0.1308903313
 H         -4.2875879080        2.5800222276       -0.0294025783
 H         -5.3936975323        1.8939218003        0.8307635421
 O          2.9764001392       -6.1823452719       -1.9792922619
 H          2.8158441885       -5.2151992539       -2.0806520632
 H          3.4913859335       -6.4368600632       -2.7471236698
 O         -1.5762117915        6.3600171117        0.3599594275
 H         -1.8403760144        6.3310868291       -0.5672342829
 H         -2.3865061366        6.4019775340        0.8823227588
 O         -3.9574405088       -3.9592548168        5.1691057996
 H         -4.3112013051       -3.3975168720        5.8654344428
 H         -4.6908361664       -4.5099864421        4.8744443211
 O         -1.1111429652        2.8971556624       -4.2348831537
 H         -0.6105444770        3.7284521022       -4.2143454147
 H         -1.6089872269        2.8697918985       -3.3751543332
 O          0.3629665069        1.0108005515       -2.6479165468
 H         -0.0740670966        0.1477156629       -2.6996110537
 H         -0.1232688679        1.6168800953       -3.2210479912
 O          4.1119555338       -4.3456398015        3.8519181739
 H          3.9755189070       -4.0869116373        4.7731510212
 H          3.4026913643       -4.9636529932        3.5979199753
 O          3.5572220036        3.3856457147        0.9988506726
 H          3.9674430043        4.2607758997        1.1300736475
 H          3.9762864888        2.9625198862        0.2269065090
 O          1.5231427139       -0.4418190211        4.6725058586
 H          1.6625801570       -1.3456856072        4.9868688916
 H          1.9881125536       -0.3790330914        3.8122216038
 O          6.3683392786        5.2604467059       -1.8781516949
 H          5.4174457739        5.1985854120       -2.0738588387
 H          6.7414281959        4.3774978344       -2.0328047185
 O          5.3372726274        0.7660351357        2.5824006127
 H          6.0572860334        0.4076842484        3.1334052065
 H          5.5829046306        1.6863589592        2.4043555348
 O          6.2029781178       -3.2902097638       -2.2995950365
 H          6.5738286341       -2.6868377220       -2.9713817732
 H          6.9423137394       -3.5816927512       -1.7335551083
 O          2.4462016689       -0.7743316989       -1.6823953947
 H          1.7642826779       -0.8754752232       -2.3504111012
 H          3.3065563528       -0.7121926065       -2.1500749312
 O         -7.0206056735        2.5071567519       -4.9195532763
 H         -6.0886108790        2.1735045850       -4.9058338851
 H         -7.3618279726        2.3419043730       -5.7978810033
 O          2.4624684954        0.7010072144       -4.2510735780
 H          1.7695320200        0.8916527870       -3.5754747335
 H          2.3518420924       -0.2402920621       -4.4684997338
 O          0.8953055805        7.0429955614        1.1874593644
 H          0.0048368065        6.8326578683        0.8469719004
 H          0.9980245633        6.5282629436        1.9950110425
 O         -7.2733079789        5.8378541244        2.3117705671
 H         -6.7174556894        5.3977097623        2.9674151177
 H         -6.7852354432        5.7508999779        1.4705502594
 O         -1.5143265555       -4.6819727975        3.6438278595
 H         -2.3468107979       -5.1709007615        3.5405504694
 H         -1.6499957465       -4.0264170477        4.3565269372
 O          2.2189220423       -6.1795637957        3.0273884373
 H          1.5212508950       -5.9113987915        2.4005648510
 H          2.8377698793       -6.6979749107        2.4991142400
 O          4.4168577751       -0.0884795733        0.2428188034
 H          4.8855497213        0.1185909689        1.0726339970
 H          4.5047102013        0.7036087296       -0.3172851094
 O         -2.4727818188       -4.1063934022       -0.9488867995
 H         -1.5154607781       -3.9899834204       -0.7945067732
 H         -2.9169410589       -3.8779636749       -0.1158110840
 O         -3.0114483063        3.5572529295        5.1352039380
 H         -2.8737510889        2.8342507138        4.4705268681
 H         -2.1868040176        3.5148798661        5.6492676244
 O          1.3664275472       -3.2847308439       -6.6327954152
 H          1.7050271242       -4.0926284765       -6.2102828164
 H          2.1033333728       -2.8317018333       -7.0590031788
 O         -6.0580365166        5.1068719918        0.0234196187
 H         -5.9959295623        5.5498726534       -0.8440573941
 H         -6.4202599809        4.2238723950       -0.1779630340
 O          0.3294124111        2.0686273992        3.2835787565
 H          1.2986841998        2.0784155039        3.3465936074
 H         -0.0150606879        2.4028610735        4.1252682804
 O         -0.2398750508        2.7272970564       -7.0110898189
 H         -0.1571427938        3.4404755274       -7.6425179401
 H          0.3519914826        2.9503157434       -6.2542838013
 O          2.0136322716       -5.2533410917       -4.8784344437
 H          1.8192500164       -6.1964030822       -4.7545036706
 H          2.9035302686       -5.0929729602       -4.5115063859
 O          3.0746706856       -1.1471610543       -7.1046019795
 H          2.2599535386       -0.6560831555       -6.8598152571
 H          3.4941825385       -0.6507193007       -7.8058514691
 O         -5.1102999449       -4.4331628039       -2.6944123139
 H         -4.6266421479       -4.4364286237       -3.5335293516
 H         -4.8583357261       -3.6144930169       -2.2060951804
 O         -6.0874405484       -5.0814735087        3.6612926404
 H         -6.1541837086       -4.1055533758        3.4963732064
 H         -6.7676596402       -5.4916656558        3.1256691176
 O          6.7771886194       -1.9483675201        0.9454801839
 H          6.5072532168       -1.4107225977        0.1728376097
 H          6.0189827042       -1.9913866380        1.5689616584
 O         -3.7303098880       -3.4033045236        1.3908849321
 H         -3.5736734351       -2.7367607367        2.0943939429
 H         -4.6908554537       -3.3598639117        1.2084260746
 O         -1.3279348715       -2.6235667752        5.3683302699
 H         -0.4244420501       -2.6455543368        5.7011252295
 H         -1.7873147935       -1.8971713421        5.8068041103
 O          2.8411078936        1.4718945944        6.2511800417
 H          2.5981452335        0.7882693761        5.6031759187
 H          3.8052631852        1.4629060122        6.2924981013
 O          2.5583154310       -0.4150433031        2.1916896306
 H          1.9978198077       -1.0960346350        1.7744915601
 H          2.9811179945        0.0541218543        1.4549131194
 O         -8.7844394908       -1.6301895424       -1.3920527327
 H         -8.3736304125       -2.3722316560       -1.8704058901
 H         -9.4482062669       -1.2357476324       -1.9595204930
 O          8.0112056994       -3.9255792119       -0.3897593819
 H          7.5888601858       -3.2402875834        0.1759785924
 H          7.6031913962       -4.7452065901       -0.0883534307
 O         -7.6957060632       -3.7624870048       -2.7266090962
 H         -6.7621720891       -4.0735551620       -2.6911601855
 H         -8.2479932763       -4.5438951466       -2.7302391631
 O          0.0136601617       -5.5618200223        1.4595435958
 H         -0.6863352290       -6.1157204686        1.0622808347
 H         -0.4091254956       -5.1572456358        2.2311461291
 O         -5.3165267741        0.2244789077       -1.9935220013
 H         -5.1753618485        0.7639628688       -1.1829377166
 H         -6.2223288988        0.3982498933       -2.3025331855
 O          1.7920518410        3.2770572267       -2.5049040610
 H          2.5134314073        3.9169566338       -2.3421371732
 H          0.9828701262        3.6694088485       -2.1124897855
 O          4.5521363663        5.8614174920        1.3802279752
 H          4.0621047040        6.3379647607        0.6833583951
 H          5.4917097601        5.8813332777        1.1532669206
 O          4.6674217728       -2.2753859328       -5.1659202292
 H          4.1031012580       -1.8774334552       -5.8464860392
 H          4.5379583642       -1.7497366163       -4.3560800993
 O         -4.5481858192        1.6090375066       -4.6812173205
 H         -4.5697367444        0.6355772484       -4.5498066603
 H         -3.9213037987        1.7598415906       -5.4180905869
 O          9.0744024150       -0.9663798012       -2.4082980633
 H          8.7850760108       -1.5369099665       -3.1302154393
 H          9.5602393141       -1.5135937137       -1.7460511508
 O          9.2150634121        1.6012634478       -3.2653360085
 H          9.8964140695        2.0316564040       -2.7257626239
 H          9.2415160868        0.6594129121       -3.0119843201
 O          4.3081702863       -0.8168086925        4.9970821744
 H          4.6181095240       -1.1341781874        4.1257915987
 H          4.8711435237       -0.0727297392        5.2575542983
 O         -6.5691641149        2.3790316281        2.0482678576
 H         -7.2774389490        2.9145162635        1.6484784954
 H         -7.0312682491        1.7146884815        2.5922485287
 O         -9.4730378454        4.2147536987       -1.6026437281
 H         -8.9223970338        4.4883216376       -2.3881526481
 H        -10.2483143668        4.7758559007       -1.6207060231
 O         -8.7067592462        3.8961672953        1.1576180404
 H         -8.4000632720        4.6728691249        1.6737491729
 H         -8.9168474268        4.2132330405        0.2695948994
 O          0.5126058927       -7.1241807232       -1.6063139766
 H          0.3533019798       -7.3636638690       -0.6918379169
 H          1.4183613539       -6.7392985267       -1.6526169538
 O         10.7963662801        2.5613283874       -1.2061185544
 H         10.8881807913        1.7194474863       -0.6906709037
 H         11.6876646098        2.8566664326       -1.3942122806
 O         -0.3407833132       -1.6308808773       -2.5163612623
 H         -1.1793376559       -1.9165422667       -2.9269447723
 H         -0.1333659362       -2.3146276538       -1.8705104678
 O         -2.8567293919        5.8100178209       -2.1659626869
 H         -2.9325759181        5.3754006544       -3.0317835098
 H         -3.0936768055        5.1290329461       -1.5062517223
 O         -3.7731532774       -5.7806104303        2.5084651909
 H         -4.5486754279       -5.6825125742        3.0926782403
 H         -3.6996799865       -4.9004086037        2.0591380237
 O         -9.9749888653        1.4605126847       -1.6794484838
 H         -9.9878535800        2.4267548163       -1.7507768975
 H        -10.0676783026        1.2753723273       -0.7250819280
 O         -0.4924806301        2.9954867648        5.7751404428
 H          0.3282102038        3.4898249043        5.9144950136
 H         -0.3794225740        2.1384735858        6.2283087750
 O         -5.7998796821       -6.2799066433        0.6077851386
 H         -5.3337569477       -6.5673032202       -0.1913278809
 H         -5.1311107207       -6.3128686509        1.3104158385
 O          3.6501802771       -6.5488106900        0.6781311886
 H          3.1610192450       -5.6911183627        0.7517871691
 H          3.5731898090       -6.7682887579       -0.2582916016
 O          5.7567014559       -4.8624105279        0.7035609308
 H          5.2583660787       -4.0953008347        0.3861553221
 H          5.1099219778       -5.5902369922        0.7801454788
 O          8.8427503237        2.2833305048        3.0480298234
 H          9.3867412310        2.7093834266        2.3754931549
 H          7.9892325881        2.7498740499        2.9925938498
 O         -7.0555343198        2.7491784985       -1.0010806177
 H         -7.9227769775        3.0416149256       -1.2898123139
 H         -7.1667987266        1.8519465556       -0.6130189365
 O         -6.1813348622       -2.4555403550        3.4747559728
 H         -7.1245385024       -2.2316502451        3.5548073352
 H         -5.7525954550       -2.1179878885        4.2868142272
 O         -4.4999408869       -1.0526237688       -4.5283338342
 H         -5.4412919345       -1.3304519059       -4.4920632763
 H         -3.9939345352       -1.5877344844       -3.8903090315
 O         -5.1405567851       -1.5044394007        5.8242087202
 H         -4.2439927498       -1.1608856924        5.9451913397
 H         -5.7150684911       -0.7204141654        5.8776623963
 O         -8.8102561765       -1.8762163378        3.4138593810
 H         -9.5448398586       -2.2231625210        3.9180617498
 H         -8.8991347740       -2.2408452764        2.4876552448
 O         -9.7032376455        1.3479155557        1.0607910765
 H         -9.5129926950        2.2943735650        1.1533329242
 H         -8.8581394853        0.9324642444        0.7737510230
 O         -7.4966071740        0.3188746932        0.0026773758
 H         -6.7569123497       -0.1526844308        0.4704451883
 H         -7.8942727052       -0.3398631545       -0.5878927326
 O          6.8015218607       -4.2426863734        3.1335456452
 H          5.9559483086       -4.3116841829        3.5985541952
 H          6.5666512482       -4.4482433080        2.2080508238
 O         -2.4934178461        1.7490992856        3.3127525837
 H         -1.8432734607        1.0442793226        3.4787745596
 H         -2.1062140034        2.3675345515        2.6549305920
 O          4.5042105266       -4.6976941977       -3.9830271470
 H          5.0650847956       -4.4451783353       -3.2330307650
 H          4.5661013911       -3.9220777454       -4.5704600178
 O          9.0267584911       -0.8411088518        1.6304798370
 H          9.1926834335       -1.2470179509        2.4919981933
 H          8.1417174906       -1.2231013319        1.3797576674
 O          7.2129276868       -1.7363503485       -4.3000742697
 H          6.5439665295       -2.1021910141       -4.8979827605
 H          7.0495469548       -0.7772789659       -4.3199048899
 O         -7.9501033126        4.8284479873       -3.6308822166
 H         -7.1817314646        5.3386604256       -3.3286881015
 H         -7.6022733137        4.0464865389       -4.0874589613
 O         -2.8245955746        1.8086796892       -6.6983256219
 H         -1.9328177633        2.1847810967       -6.7942467500
 H         -2.7814211488        0.8984517867       -7.0170895694
 O         -1.6554357451       -5.9858381492       -2.7643503957
 H         -2.0795735581       -5.4783338800       -2.0490670966
 H         -0.9230655805       -6.4688954734       -2.3399793752
 O          2.9095754837        6.9739969228       -0.4545796304
 H          3.0165307779        7.8910789989       -0.7060253003
 H          2.1029129211        6.9429809409        0.1311830533
 O          4.4132964575        2.4124968552       -3.7453525702
 H          3.6753199617        1.7979516703       -3.9575196388
 H          4.1136742798        3.2988507940       -3.9526206450
 O          1.4127532463       -3.1072471511        5.6678972339
 H          1.1236209420       -4.0537736691        5.6170276856
 H          2.2874326402       -3.1258150283        6.0900002594
 O         -1.2637201588        0.1670717644       -4.7473970088
 H         -1.3400832140        1.1253794532       -4.8652872491
 H         -1.8157122114       -0.2616139738       -5.4426059631
 O         -8.8442638006       -2.9365487318        1.0487902749
 H         -7.9182922209       -3.2382518734        0.9375810154
 H         -9.0143881877       -2.3677733456        0.2844313664
 O         -7.7937426509        0.6770232988       -3.0324083777
 H         -7.6385503865        1.3850288123       -3.6802403126
 H         -8.6029737610        0.9203708232       -2.5345053596
 O          8.4522992114       -2.3227914367        3.8575444856
 H          7.7965500294       -2.9878965522        3.5174369642
 H          8.9241463133       -2.7674168277        4.5606804151
 O          5.6450721737        1.4887157912        5.7694037588
 H          5.5125420806        2.3662898131        5.3751474720
 H          6.4506741800        1.1332399372        5.3633870219
 O         -0.2657946877        5.4935774026       -3.7411577497
 H         -0.3154440961        5.2875985850       -2.7864039090
 H         -1.0402055443        6.0243812128       -3.9355258835
 O         -2.5857957031       -0.2543407905        6.1840656505
 H         -1.7130022212        0.0326199287        6.4768110267
 H         -3.1861040293        0.4758690477        6.4613570220
 O          4.8389847500        3.7479586999        4.3980223133
 H          4.4978800896        4.6653098224        4.3528837362
 H          4.0950698971        3.1846585628        4.0748425706
 O         -3.1993364073        4.6294089325       -4.6522080462
 H         -2.5502869318        3.9170206090       -4.7851495804
 H         -4.0529871293        4.2712507021       -4.8947505967
 O          6.3923023409        3.2520867552        2.3255674002
 H          6.5374162651        4.0193641688        1.7351883720
 H          5.8726290705        3.5722619971        3.1008498100
 O          7.4385639110        0.1864706845        4.1475851934
 H          8.1267238160        0.7868007398        3.8183570817
 H          7.7896853606       -0.7211127717        4.1086232368
 O          7.1060534328        5.2182846772        0.6572396950
 H          6.8568054566        5.2848074014       -0.2975188996
 H          8.0184859031        4.8932464437        0.6711551787
 O         -3.8965823535        6.2445899798        2.0321602142
 H         -4.3647177285        5.4796220556        2.4386084101
 H         -4.5481146917        6.9417319401        1.9569210764
 O          0.9595723699        5.2151842960        3.4156115960
 H          0.0260403098        5.3846517870        3.6217206478
 H          1.2845438162        4.6091922222        4.1077400746
 O         -4.9225421174        3.2264084919       -2.5603549207
 H         -5.6462727579        2.9218416616       -1.9791476683
 H         -4.8355097223        2.5808800795       -3.2828233115
 O          4.7429120925       -0.6176912385       -2.9582088032
 H          5.4600724354       -0.5998304137       -2.2885666134
 H          4.9024124738        0.1503653104       -3.5131553738
 O          4.8303494053        2.2144834118       -1.0934046485
 H          4.4622877550        2.2990928982       -1.9901487538
 H          5.7768888246        2.4086078387       -1.2115333395
 O          0.6421746052       -5.5734414036        5.1891372971
 H          1.2670575842       -5.9555851284        4.5545561169
 H         -0.1821015980       -5.4290609558        4.6975236237
 O          2.3407961960        5.7355610158       -4.6145646255
 H          2.3073809450        4.9131489790       -5.1212445704
 H          1.4272024678        5.8579661712       -4.3055614170
 O          1.6763490266        3.0862826229       -5.1810306824
 H          1.9796870322        2.1670087605       -5.2693931826
 H          1.5821191084        3.1919139509       -4.2052410071
 O         11.1114954270        0.3657637017        0.2030562801
 H         11.3028010558       -0.4445777074       -0.2788968750
 H         10.4036578978        0.1339973101        0.8236178057
 O          2.0344686411        3.9064310982        5.5664578596
 H          2.3734021121        2.9968331817        5.7580573479
 H          2.7176260732        4.5195662218        5.8416490706
 O         -5.1507633878        4.2665004377        3.3146424803
 H         -5.5729170935        3.4850400166        2.8942482282
 H         -4.6250828389        3.9564307889        4.0583534134
