  114
       -193.43138621
 O         -0.3471577852        2.2076556851        1.2282498665
 H          0.0005063951        2.8235646768        0.5479394542
 H          0.2366850978        2.2902590545        2.0029454212
 O          3.2364582180       -2.8314307580        0.1948469854
 H          2.3016279258       -2.5681837130        0.0426580882
 H          3.7413258207       -1.9989909702        0.2101080364
 O          3.6660329941       -3.5884755092       -2.3057086901
 H          4.0494205052       -4.4611884979       -2.3838987938
 H          3.5478962797       -3.4127430585       -1.3355676331
 O         -4.8936010912       -0.0836600722       -1.9462875960
 H         -4.3688903851       -0.8469996844       -2.3062303434
 H         -5.6852793946       -0.0451749813       -2.4849649224
 O         -6.1378092007        1.2256119340        1.4548885045
 H         -5.5018578479        0.7269761170        1.9899885397
 H         -6.7566499842        0.5729317481        1.1187958182
 O          3.3372006299        0.4114766134        3.7153270205
 H          4.1333754395        0.5364467572        3.1398042210
 H          3.6235411976       -0.1082779335        4.4666707372
 O         -1.7878309133       -1.7817749534        2.7682173414
 H         -1.3467860633       -1.3238830225        3.4913512909
 H         -1.4732679816       -1.3378820099        1.9559320817
 O          1.7729655324       -3.2765170238        2.6025603550
 H          1.5291139066       -2.3421552347        2.4762378590
 H          2.4220962749       -3.4611845723        1.9124587106
 O          0.7247594359       -2.1313045303       -0.3992298546
 H          0.2387712338       -1.4012723435        0.0240278411
 H          0.0861134479       -2.8822301975       -0.4038308942
 O         -0.5583655877        0.5684288966        3.9024899814
 H         -1.4601964610        0.9366478191        3.9197942649
 H          0.0294442003        1.3252475421        4.0098460929
 O          1.2955592125       -0.5776921579        2.2468363149
 H          0.5334297897       -0.2403472265        2.7497202242
 H          2.0778038241       -0.2967025101        2.7600621886
 O         -5.4073779391       -1.4847651807        0.3884314957
 H         -4.9521557501       -1.1124984817        1.1609942082
 H         -5.2262916098       -0.8932773937       -0.3647959316
 O         -3.9098445763       -3.5345004223       -0.3429400289
 H         -4.3235605767       -4.3681232991       -0.1186355233
 H         -4.5028165036       -2.8217140436        0.0063980561
 O         -4.4321148774        2.2081301615       -0.4059964921
 H         -4.5188104792        1.4865054106       -1.0485068003
 H         -5.1266810273        2.0281957294        0.2594962391
 O          0.1932596872        1.5895823238       -4.3751029058
 H         -0.1074167808        1.3978545760       -3.4328579978
 H         -0.5200426744        1.3209969001       -4.9532405443
 O         -1.1532049118       -3.1999797098       -3.1265159924
 H         -0.2636422371       -2.8450197541       -3.2857920319
 H         -1.0946856670       -3.6946996803       -2.2984173645
 O         -1.1458376075       -4.0124992578       -0.3716704512
 H         -2.0874874003       -3.7817000906       -0.3647134402
 H         -0.9583245629       -4.2953620179        0.5581767917
 O         -0.7107318814       -4.3199148225        2.2121650069
 H          0.2227982035       -4.1024065642        2.4058016216
 H         -1.2158407090       -3.5527528547        2.5244297730
 O          2.4395783828        0.0307660143       -4.1858876394
 H          1.6997736220        0.5947857569       -4.4743446168
 H          2.0125158306       -0.7593122600       -3.7922302725
 O          0.3958287770        4.0041553856       -0.6243526372
 H         -0.5333069992        4.2210258185       -0.7708352339
 H          0.7770158539        3.9412397280       -1.5353900761
 O          2.6491616004        3.1780813683        0.8703711527
 H          2.1185793024        3.7666425172        0.3182872846
 H          3.5336043360        3.0816206254        0.4520599522
 O          1.4052395707        3.7674379362       -3.0641759991
 H          2.1657070816        3.1873269244       -2.8547012800
 H          0.8784778199        3.2469524655       -3.6858490201
 O          3.0986558384        1.8234582217       -2.3252970852
 H          2.9945197035        1.2064915493       -3.0802154125
 H          2.5517255578        1.4452408616       -1.6242761901
 O          1.8548012428        0.7646109939       -0.0065142483
 H          1.5639121081        0.2039865273        0.7448661977
 H          2.0731821674        1.6352530719        0.3937131944
 O         -3.0526452521        1.7153495376        3.9132189948
 H         -2.9966907915        2.3247775042        3.1213522643
 H         -3.4485750393        2.2225041789        4.6212342443
 O          5.3944830207        0.6703137526        2.0893987872
 H          5.5928168327        1.5523517251        1.7631228486
 H          5.1342023093        0.1511219336        1.3080874308
 O         -2.8035442294        3.1675610520        1.7810658072
 H         -1.9007723088        2.8871000676        1.5228500222
 H         -3.3899796968        2.8981654332        1.0625162707
 O          4.6802357383       -1.0412460077       -2.7387022509
 H          4.4337250989       -1.9805963786       -2.7290361964
 H          4.1114106833       -0.6206406238       -3.3960631767
 O         -3.6874902567       -2.2558689144       -2.7927923803
 H         -3.8307333063       -2.8402292535       -2.0299775774
 H         -2.7835129587       -2.4702884080       -3.0887650270
 O          4.9104560915        2.4363193476       -0.3737523070
 H          4.6292491540        2.6265958937       -1.2784439958
 H          4.8717034963        1.4631954302       -0.3296029923
 O          1.5185867926        2.4559079375        3.2570752318
 H          2.1524063193        1.7876167589        3.5626115829
 H          2.0074591737        2.9596464294        2.5875873608
 O          4.2998618910       -0.3060710073       -0.2235272830
 H          4.5140664049       -0.5327009405       -1.1616953960
 H          3.3739236447        0.0281273726       -0.2224667911
 O          1.4081503726       -2.1440017475       -2.9686099461
 H          2.1454153559       -2.7733384248       -2.9562027906
 H          1.1858870253       -2.0075749530       -2.0198496721
 O         -2.3120714988        3.6985156748       -1.3944487547
 H         -2.6447667447        4.3261948543       -2.0359917479
 H         -3.0882965799        3.2456288720       -1.0247696177
 O         -4.1365522662       -0.4063174515        2.6002691003
 H         -3.8143765221        0.3384968345        3.1391601534
 H         -3.4239529609       -1.0701272734        2.6717787985
 O         -1.0913536261       -0.3098864313        0.5499267895
 H         -0.8319716320        0.5786006126        0.8662547749
 H         -1.5268597334       -0.1684314990       -0.2962250073
 O         -0.5410856817        1.3002109922       -1.7485103509
 H          0.2233348937        1.2418577392       -1.1567842982
 H         -1.0057038643        2.1270767186       -1.5604261592
 O         -1.9439279200       -0.1970653442       -4.6315117872
 H         -2.7615955991       -0.3604216623       -4.1569784325
 H         -1.4035581846       -0.9814457244       -4.5039840072
