  76
       -127.45992060
 H          0.0991755390       -0.6694349752        0.7192367834
 O          0.1423900847       -1.7015280510        0.7244889235
 H          0.9984340555       -2.0499269682        0.2956313879
 H         -0.6438179382       -2.0600025079        0.1632293683
 O         -3.6514787416       -1.7940244972        1.1683219267
 H         -4.5917935028       -1.7936195375        1.3489515215
 H         -3.3823910460       -0.8614987470        1.0080984997
 O          2.3888141079        0.3519643579       -0.9901149538
 H          2.8128991565       -0.2487729940       -1.6198573987
 H          2.5916815613        1.2598557781       -1.2802932111
 O          3.1887040048        0.3572162398        1.6502143659
 H          3.0625459277       -0.5440274251        1.9850024210
 H          2.8938185538        0.3463255836        0.7229213348
 O         -0.1749242647        0.7952997084        0.8694859091
 H         -0.1918686891        0.9545077616        1.8517559933
 H         -1.1115470336        0.8116909740        0.5862186241
 O          2.1491193084       -2.8595720263       -0.3290098458
 H          1.5663710079       -3.5364776404       -0.7664572125
 H          2.5904701190       -2.4059470377       -1.0692292334
 O          0.3809565204       -1.2723640705        3.6807284592
 H         -0.3275773610       -1.8517033479        3.3506008475
 H          1.1882935833       -1.5840443171        3.2496399345
 O         -2.6567234516       -1.3148028178       -2.8238739879
 H         -3.0126973548       -0.4514685248       -2.5472703363
 H         -3.3664416362       -1.7800158816       -3.2684826473
 O         -1.2567253408        2.1998874041       -1.9267301667
 H         -1.3067983951        2.8208248407       -1.1634194333
 H         -0.6014041372        2.5736372677       -2.5463295461
 O         -2.8609627317        0.6866438517        0.5719609623
 H         -2.9809269394        1.4208992385        1.1961349528
 H         -3.2411180927        0.9369140883       -0.2883892414
 O          2.6969833942       -2.2777239735        2.3254946686
 H          3.2462110769       -2.8588656466        2.8526739382
 H          2.6187735624       -2.6758754912        1.4425700879
 O         -0.1765485741       -0.2790653693       -1.6031509718
 H          0.7288182673       -0.0091964730       -1.3556361145
 H         -0.6416771094        0.5521029025       -1.7994058516
 O          0.3348914615       -4.1663866502       -1.6736332511
 H          0.3229892665       -3.5668801491       -2.4412791625
 H         -0.5123536299       -4.0288734057       -1.2320329726
 O          2.2463306614        2.3422909530        3.0772852492
 H          2.6395186750        1.5691668735        2.5911256005
 H          2.9068285089        2.6347170004        3.7052420860
 O         -1.3827520697        3.7887164559        0.2085046809
 H         -0.4376229647        3.8600445417        0.4174833480
 H         -1.8109426557        3.4708840908        1.0173777650
 O         -2.4323465795        2.5637565568        2.5158311081
 H         -1.6795182711        2.1224439629        2.9594060568
 H         -2.9180999661        3.0284654331        3.1979565424
 O          2.9406768117       -1.7255843563       -2.6998497714
 H          2.0549509684       -1.8514003120       -3.1017670158
 H          3.5742743937       -2.1495863761       -3.2795577124
 O          2.7630223842        3.0076477040       -1.4742347643
 H          2.2184811114        3.1719464991       -0.6625176710
 H          3.5822428095        3.4917753235       -1.3659180604
 O          1.2362042914        3.1097863474        0.6680451985
 H          0.8119382927        2.2322063961        0.5728406434
 H          1.6613281783        3.0786516187        1.5423266998
 O         -1.5968773708       -2.8992982203        2.6893870867
 H         -1.9128990167       -3.6271230758        3.2244565008
 H         -2.3629737957       -2.5246177159        2.2280482964
 O         -3.6314890812        1.1469331325       -2.0177601502
 H         -4.2916874469        1.7012854534       -2.4354110290
 H         -2.7615904622        1.6093505355       -2.1230970790
 O          0.7955969501        3.1170497157       -3.4043690547
 H          1.5552525427        3.0918201234       -2.7964490010
 H          0.8463255165        3.9444399610       -3.8842044604
 O         -0.2210681242        1.2647119319        3.4324557932
 H          0.6286650678        1.7333099100        3.5222754253
 H         -0.0385583161        0.3236848675        3.6835438400
 O          0.3594291146       -2.0547863975       -3.4357014661
 H         -0.2043436042       -1.9674618404       -4.2042639241
 H          0.0332599110       -1.3806267833       -2.7788669261
 O         -1.7834648528       -2.6390682298       -0.6432535735
 H         -1.9704643715       -2.0991498075       -1.4426975031
 H         -2.5481232107       -2.5344639163       -0.0550507402
