  147
       -244.15606336
 H         -3.4312373180       -0.5454154566       -0.2330160642
 C         -2.6043127188        0.1647151068       -0.2226030691
 H         -2.4226163933        0.5111090131       -1.2391525752
 C         -1.3562243013       -0.5082456003        0.3398510536
 H         -1.0399411665       -1.3202845637       -0.3105699027
 H         -1.5653655798       -0.9098694560        1.3311302454
 O         -2.9416565661        1.3084368963        0.5326943150
 H         -3.2228633532        1.0101201237        1.4181192525
 N         -0.2781230105        0.4848699510        0.4704792433
 H         -0.5992746757        1.2236038191        1.1333793187
 H         -0.0201464138        0.9099350820       -0.4517366428
 H          0.5699330803        0.0193301251        0.9117629793
 O         -0.6569207721        4.7491927700        0.4017922461
 H         -1.1028252377        4.4091212481       -0.3932327361
 H         -1.3108559137        4.5945287227        1.1060044822
 O         -1.0209753592       -3.9682512485       -0.7337684038
 H         -0.2723745080       -4.5821124665       -0.5947239132
 H         -1.8293749068       -4.4900451997       -0.8691013629
 O         -1.9832447767        3.1181618862       -1.3292559997
 H         -2.2925224479        2.6059147609       -0.5629701056
 H         -2.7593506339        3.1628747600       -1.9026134899
 O         -0.4756767994       -3.5983230893       -3.3519385673
 H         -0.6929031150       -3.6696293682       -2.3940809145
 H          0.4485446975       -3.8707679688       -3.4157437432
 O         -2.7272685309        4.0566920554        2.0617966303
 H         -3.4700846346        3.8040911736        1.4510806913
 H         -3.0911499742        4.7012319580        2.6690794726
 O         -5.9747366020        1.1200431262        1.5661593050
 H         -6.7120816001        1.3018763434        2.1499726596
 H         -5.2576744693        0.7431903260        2.1126719383
 O          6.4374799930        1.9348505253       -0.0776195636
 H          5.7553649152        1.8699320594       -0.8088821397
 H          7.2260912115        2.3104275353       -0.4692531181
 O         -0.0588838572       -1.0038513088       -3.1973017569
 H         -0.2921207179       -1.9221956537       -3.4547561112
 H          0.2836770864       -1.0919894142       -2.2928309836
 O         -5.9384988041        0.6174763633       -2.7954748057
 H         -6.7369482092        0.6610346581       -3.3228048954
 H         -6.2043892406        0.2043775471       -1.9282810703
 O         -3.9041374179       -1.2176341797       -3.0539662627
 H         -3.1807510051       -0.5634165840       -3.1463892838
 H         -4.7097922537       -0.6793429837       -3.1283591853
 O         -4.7954411554        3.4558259074        0.5358821832
 H         -5.2103989449        2.6396522379        0.8571889630
 H         -4.6479480688        3.3119651737       -0.4126413448
 O         -1.6191112835        0.1316751164        4.2823371370
 H         -1.3279193698        0.8529888659        3.6672698280
 H         -1.4827846619        0.4570346063        5.1724819848
 O          2.1712402475       -3.8021380578       -2.4973093352
 H          3.1033045197       -3.5323329918       -2.5350401079
 H          2.0901928792       -4.5253798356       -1.8582639613
 O          1.6906707389        3.7146920300       -0.4925985858
 H          1.9780458836        3.0284256310        0.1643246538
 H          0.8908149854        4.1328581758       -0.1220558356
 O          1.5652132239       -0.8685334785        1.6982222033
 H          2.4328978889       -0.6249624498        2.0755776121
 H          1.0619986630       -1.2817205056        2.4304680310
 O          0.1126172301       -1.9563690016        3.6460687684
 H         -0.4058062410       -2.5948815229        3.1162177307
 H         -0.5187045956       -1.2954714240        3.9715188878
 O          3.9331450289        1.9443554413        4.1194398708
 H          4.3818392436        2.5056908335        3.4716746801
 H          3.0325059311        2.2908319599        4.1962872715
 O         -3.8755614121       -0.0208956278        2.7854544012
 H         -3.1746192221        0.0072742382        3.4612406324
 H         -3.9287936055       -0.9501812912        2.4955354728
 O          1.1449544616       -1.8451167302       -0.9276487701
 H          1.5047346537       -2.5486940743       -1.5050825476
 H          1.3288678202       -2.1467850276       -0.0189503769
 O          4.8009244493        3.1697092067        1.7381606319
 H          5.4832311189        2.8134881033        1.1440894315
 H          4.5259691371        4.0274374867        1.3721959494
 O          2.5406525551        1.8818865214        1.1630491676
 H          2.7019341160        1.1039550588        0.5818546972
 H          3.4234179713        2.2462050520        1.3943045523
 O          0.3760234541        1.8126133016       -1.8188638676
 H          0.9401280492        2.5392552481       -1.4777390211
 H         -0.5006008802        2.2155542713       -1.9543936492
 O         -4.5281384853       -2.5749460882       -0.8004567047
 H         -4.2812902856       -3.4985120791       -0.9898358068
 H         -4.2338932873       -2.0778137129       -1.5950583375
 O         -4.6082988883        2.9481398223       -2.2310515265
 H         -5.1231436869        3.5940365699       -2.7161916490
 H         -4.9998622865        2.0730412357       -2.4254253822
 O          1.2912368023       -5.3595438233       -0.3478380073
 H          1.3460076144       -6.1809135134        0.1405671276
 H          1.7150997464       -4.6672420418        0.2256565502
 O          1.3551563982        2.8739366327        3.3491814562
 H          1.7728286880        2.4069983440        2.5991466703
 H          1.4124571447        3.8265725012        3.1201180700
 O          4.7176744425       -2.6704016792       -2.6828537591
 H          5.3848386216       -3.1010239644       -3.2183914919
 H          4.5610499940       -1.7833124949       -3.0844128200
 O          3.6127153235        5.2944770926        0.4466752003
 H          2.9720579574        4.7589907240       -0.0803090050
 H          3.9430868790        5.9854314540       -0.1268771146
 O         -3.1928638642       -3.7928775192       -3.8352340278
 H         -2.2308492224       -3.7545054429       -3.9412422216
 H         -3.4891786466       -2.8766022144       -3.7037412790
 O         -2.0481786010        0.7164239756       -3.3532453233
 H         -1.2410184738        0.1536938801       -3.3070331423
 H         -2.0207111562        1.1675079026       -4.1967456902
 O          1.9492903272        0.6416452868       -3.8454576710
 H          1.6525487847        1.2426236585       -3.1462509104
 H          1.2757354483       -0.0617560968       -3.8370343113
 O          4.3874396754       -0.2781692803       -3.8517689715
 H          4.6312099559       -0.2257644462       -4.7764511647
 H          3.4437871545        0.0478025317       -3.8087324861
 O         -4.0436882839       -2.5536396169        1.8055116051
 H         -4.1940073162       -2.5292127107        0.8317644809
 H         -4.6900136827       -3.1601751524        2.1689884516
 O         -6.5270168649       -0.5818019755       -0.5483675501
 H         -5.9429319737       -1.3530627163       -0.5124242430
 H         -6.3102468413       -0.0046642562        0.2044020083
 O          1.4637785840        5.3302568646        2.2887223583
 H          2.2848244602        5.4715066636        1.7947901441
 H          0.7399899230        5.4086705662        1.6556345806
 O         -0.9874808473        2.0416805539        2.5852881762
 H         -0.1482383788        2.4304339186        2.9476671460
 H         -1.6290715362        2.7631315217        2.4613047292
 O         -1.3980951482       -3.4041033383        1.9592008056
 H         -2.3338105107       -3.1582900608        1.9841323278
 H         -1.1735505275       -3.5208964818        1.0211657727
 O          3.9094044724       -0.4402542844        2.9053418638
 H          3.9264017752        0.3825069555        3.4434585335
 H          4.7236027057       -0.4456313385        2.3825111099
 O          2.7645534733       -2.9383098464        3.5805966015
 H          1.8867575245       -2.6995343936        3.9061130563
 H          3.2672255711       -2.1103876897        3.5188089197
 O          4.6131513621       -2.0676228055       -0.0033897400
 H          5.3764294956       -1.6693352382        0.4376805173
 H          4.8589528730       -2.3253031506       -0.9058332870
 O          6.2866814861       -0.3613327352        1.3593784298
 H          7.0227021545       -0.3778332872        1.9721411985
 H          6.3530181403        0.4750370450        0.8553732771
 O          2.4240083025       -3.4286260287        0.9856693270
 H          2.4847935546       -3.3567410913        1.9664561403
 H          3.2494143530       -3.0379045995        0.6607451245
 O          3.0169083553        0.0012636663       -0.6145973504
 H          2.2279417554       -0.5317607781       -0.8484297648
 H          3.6460709606       -0.6716536912       -0.2838596101
 O         -3.4610392858       -4.9834845542       -1.5250368421
 H         -3.8782049696       -5.8395216490       -1.6223375387
 H         -3.3830544208       -4.6031205788       -2.4467800615
 O          4.6128097194        1.7148068681       -1.9094443770
 H          3.9104529636        1.2100698251       -1.4520453942
 H          4.8122164878        1.1750778767       -2.6864884181
