  240
       -407.36406597
 O          0.6702126127       -0.7610588299        1.0071651074
 H         -0.0605847707       -0.1744088475        1.2564771366
 H          1.2385204661       -0.8341650037        1.7998580879
 O         -0.1036308685       -3.1269837655       -0.3437171821
 H          0.2726847769       -3.1755378925       -1.2449965833
 H         -0.7925523107       -2.4404297065       -0.3813100971
 O         -3.5871238309       -5.1344197855        1.1565009386
 H         -3.4736649874       -5.0817816090        2.1194910148
 H         -2.6845316695       -5.3188847056        0.8297645074
 O         -2.9786417468       -4.1051639684       -1.4586010768
 H         -3.3584983668       -3.8321771600       -2.3240731672
 H         -3.5866059276       -4.6952081521       -1.0099203192
 O          1.7797932115        1.3499772731        2.9625821472
 H          1.1015142068        1.9226368156        2.5302541785
 H          2.2842839344        1.9232711208        3.5710779353
 O         -0.4131708765       -2.1498988658        5.0417181584
 H          0.3917731787       -2.3496337681        5.5789438108
 H         -0.2525031957       -2.4953461251        4.1399504608
 O         -0.3417901981       -3.0093023081        2.4642404306
 H          0.1670924474       -3.8272418238        2.3044234185
 H          0.0252842765       -2.3441483102        1.8540620247
 O          0.0144488662        2.9217030255        1.8295480750
 H         -0.3364578162        3.3208408105        2.6461311824
 H          0.4197869414        3.6538730153        1.3090130995
 O          5.1739873595       -0.5070535811        0.7730563455
 H          4.3459619915        0.0241159887        0.6543163346
 H          5.8943229367        0.0712565435        0.4878789029
 O         -2.5791193254        6.4311623604        1.8378243513
 H         -2.4716232490        5.7210418780        1.1535535235
 H         -2.8790501182        7.2126439307        1.3741415913
 O         -3.1072029050       -1.9914757225        5.0025631705
 H         -3.0964602099       -1.9373568314        4.0220814385
 H         -2.1752564112       -2.1315407795        5.2481041984
 O         -2.7960965096       -1.8352452230        2.3465118990
 H         -2.0501420282       -2.4470004918        2.2255112236
 H         -3.5196151998       -2.1329447908        1.7491840617
 O         -1.6381462784       -0.9342865723       -6.1449319712
 H         -2.0276849190       -1.8147722526       -6.3529583251
 H         -2.4113787499       -0.3564728000       -5.9817200973
 O         -4.6652284015        0.4550843526        2.9338267422
 H         -5.0059402330       -0.4297504670        3.0752882769
 H         -4.0262897173        0.6176710840        3.6580683262
 O          3.9356426299        0.5070114950       -4.4009792491
 H          3.5582022410        1.3533373763       -4.6987321674
 H          4.2040875675        0.6803269868       -3.4733332636
 O          1.3957776940        2.3524610315       -0.8849557557
 H          0.4871459124        2.1936838282       -0.6225055113
 H          1.9665991576        1.8441963056       -0.2788820038
 O          0.9665083282       -2.3981670134       -5.9433047779
 H          0.3697768393       -1.9832728516       -6.5704321838
 H          1.1651494266       -1.6841099725       -5.2690650348
 O          5.4494405989       -4.6198930772       -0.0285491034
 H          6.1372760128       -5.0077293145       -0.5675811597
 H          5.1667929100       -3.7874484953       -0.4902525334
 O          1.1141759152       -2.7306439478       -2.6569308748
 H          1.6193110362       -1.9573781285       -2.3456968455
 H          1.6984779446       -3.2204080304       -3.2691304353
 O         -0.6905727403       -5.2196946679       -2.5372858193
 H         -1.4459274797       -4.7561400372       -2.1396398029
 H         -0.6670378148       -4.9400071793       -3.4662302914
 O          0.0322741958        6.1790481542        2.8049537692
 H         -0.1448591298        5.4493667319        3.4278625667
 H         -0.8538134000        6.4517123194        2.5139879360
 O         -5.5705290603       -2.0953521018       -1.7895843434
 H         -5.6962677833       -1.1333750004       -1.6653511783
 H         -6.4421207028       -2.4708892867       -1.9101035807
 O          0.9621360594       -5.3769926957        2.1343263796
 H          1.7011117216       -5.5061554320        1.5149945704
 H          0.1826212684       -5.6940880528        1.6425840793
 O         -1.3589426497        1.6996338984       -0.1467559105
 H         -0.9690873106        2.0888922566        0.6601078050
 H         -2.1778198236        1.2468218459        0.1348158360
 O         -5.5822430424        0.5665558429       -1.4738227221
 H         -5.0096077733        0.7026041927       -0.6871258618
 H         -5.5387491496        1.3754048608       -2.0156163873
 O          3.1633024070        1.1766593365        0.7678983367
 H          3.7996370849        1.9068336495        0.9254916704
 H          2.6501123141        1.0878243160        1.6036759494
 O         -2.0261273981        3.0809757875       -5.3916284733
 H         -2.0669554868        3.4848401111       -6.2580617414
 H         -2.0747213842        3.8219049768       -4.7426740341
 O          2.4407325066       -3.9246920228        3.9820047727
 H          1.8804792020       -4.5752960781        3.5365748998
 H          3.2774277005       -3.9050560552        3.4805821759
 O          2.4661094824       -2.9112290466        0.4895055676
 H          1.5330068278       -2.7021909797        0.3134334781
 H          2.5338566845       -3.8814887714        0.3566497602
 O          3.0017756497        2.9049363804        4.7642114363
 H          2.2625373225        2.9218658456        5.3965102654
 H          2.9712163544        3.7551086079        4.2824141417
 O         -3.1376622538        3.4342382450        4.6404435729
 H         -3.2538440696        2.5996163854        5.1096244345
 H         -3.0453562866        3.1732574765        3.6890365015
 O         -2.9133780341        0.6763836697        5.0294040050
 H         -3.0939431801       -0.2667696228        5.2377980813
 H         -1.9522990698        0.7309529783        4.9396056555
 O          2.2113048196       -0.5246183345       -1.3582248378
 H          1.8980953511       -0.6396784614       -0.4463496779
 H          1.4620076140       -0.0827351628       -1.8090356746
 O         -0.0766471248        0.3897333177        4.6067483348
 H          0.7352649891        0.4486120836        4.0527368033
 H         -0.1526931495       -0.5723758350        4.8485495443
 O          4.5445046316       -2.3585657276       -1.0736973935
 H          3.6329241907       -2.4564838016       -0.7217072125
 H          4.9266332374       -1.6701602789       -0.4963410063
 O         -3.6964113871        0.4492451670        0.3978024456
 H         -4.0532563567        0.3909975461        1.3035881001
 H         -3.3052081248       -0.4230518045        0.1826024826
 O         -3.6249868014       -2.8768060687       -3.6923396341
 H         -4.3104153744       -2.3389863242       -3.2759550453
 H         -2.7856444910       -2.3678611966       -3.6161606971
 O          0.1632038148        2.6285793358       -3.4557835210
 H          0.2218568136        1.7631164028       -2.9919620894
 H          0.1900778297        3.3167762155       -2.7661972100
 O          1.4139195307       -0.4203141312       -4.3221811616
 H          2.3628470066       -0.1889314871       -4.3253603877
 H          0.9690920463        0.2830334973       -4.8338783057
 O         -4.7617934972        5.0624588260        3.0376673379
 H         -4.3680071922        4.6540003133        3.8221212589
 H         -4.0475494029        5.5947078281        2.6492624259
 O          2.8528421886       -5.5159430670        0.1554725599
 H          3.8199766300       -5.4444865576        0.1104968628
 H          2.5408063410       -5.6880699243       -0.7638421406
 O          3.3078350386        3.6107401712       -2.1664541700
 H          2.4778083104        3.2972692052       -1.7490405415
 H          3.1477078221        3.5928567317       -3.1179299171
 O         -4.7426644634       -2.7234298905        0.8276872247
 H         -4.4363312595       -3.6526944904        0.8884171353
 H         -4.9452310075       -2.5456170876       -0.1032220368
 O         -1.1902110243       -1.7054421214       -3.5615013982
 H         -1.1596259533       -1.4072885669       -4.4909109445
 H         -0.3601788487       -2.1939903419       -3.3757769676
 O         -5.4142251648        2.9706215909        1.4988673820
 H         -5.8101051323        2.2906400893        2.0489664106
 H         -5.3186750553        3.7810409995        2.0554984149
 O          1.8907133699       -2.4343068917        6.2730274018
 H          2.2759641486       -3.0619343619        5.6446359655
 H          2.3572054510       -1.5923166943        6.1482321757
 O         -2.3369080290       -1.6144135621       -0.6620135972
 H         -2.6764791686       -2.5189268706       -0.7983569465
 H         -2.4506545472       -1.1729796737       -1.5248269707
 O         -1.4617791169        0.4379916945        2.2909657400
 H         -0.9797960652        0.4579110675        3.1373298081
 H         -2.0080144516       -0.3757653183        2.2935353091
 O          4.3105492488        1.1145033364       -1.8421806664
 H          3.5706738847        0.5372473552       -1.5372498024
 H          3.9571918823        2.0289043129       -1.8879447719
 O          2.7536051606       -3.9409612430       -4.3929468204
 H          3.5470063632       -3.3800244871       -4.2126104547
 H          2.3702728061       -3.5823458375       -5.2012265060
 O         -0.5387117976        3.9729745095        4.2889826460
 H         -1.4898492695        3.9028071856        4.5174072641
 H         -0.0576994455        3.5432288839        5.0092895528
 O         -2.6901876789       -4.5886328182        3.7149903462
 H         -3.0437269084       -3.9552845894        4.3514788909
 H         -1.7849096829       -4.3201682536        3.5295896623
 O         -2.8230403585        2.7041189192        2.1354068915
 H         -2.3648682284        1.8349906834        2.1978968760
 H         -3.7385317002        2.5513338065        1.8320505839
 O          5.1129994550        2.8895670669        1.3334513027
 H          5.8088864619        2.5343410840        0.7577573912
 H          5.3290615509        2.6084908065        2.2522056605
 O         -0.4079264347       -4.5290009903       -5.1897413578
 H          0.0869031500       -5.2682590544       -5.5428710974
 H          0.1237386211       -3.7185372132       -5.3898994501
 O         -4.9230564275        2.5724468644       -3.1983573695
 H         -3.9623045091        2.5950671136       -2.9993880822
 H         -4.9907265826        2.2201463506       -4.0912785657
 O         -3.5651182640        0.7850982543       -5.2739844533
 H         -3.0218856849        1.5914089252       -5.2838947051
 H         -3.4414394938        0.3762981399       -4.3946962937
 O         -2.3615790752        2.4018574526       -2.4896622545
 H         -2.0099540235        2.3815445097       -1.5769616921
 H         -1.5907591139        2.5473066244       -3.0701369642
 O          3.6938879935        4.9453112964        0.3041560805
 H          4.2502349562        4.2635334735        0.7233104768
 H          3.6914046927        4.7103145001       -0.6355059814
 O         -1.0113835014       -5.5317359987        0.3116422192
 H         -0.7164325762       -4.6151634022        0.0785086923
 H         -0.8766913363       -6.0388916104       -0.4923755382
 O          4.7200369455       -0.8266131140        3.3674767386
 H          4.9317134645       -0.6682030848        2.4165395612
 H          4.8613325401       -1.7798502384        3.4490237783
 O          1.9564761431       -1.3278144318        3.2693980213
 H          2.0140502371       -2.2705606447        3.5078206161
 H          2.8669701716       -1.0035628159        3.2614184354
 O         -3.2193518038       -0.0908811198       -2.7246964146
 H         -2.7802566727        0.7775717107       -2.5877351962
 H         -4.1047010870        0.0054018011       -2.3352909938
 O          4.4578192679       -3.3434025504        2.3009947973
 H          3.7688917475       -2.9919832084        1.7029695155
 H          5.0032653097       -3.9033641353        1.7367456177
 O          1.9842697044       -5.7772979229       -2.3292203462
 H          1.0285358317       -5.5935828674       -2.3522291700
 H          2.3721747177       -5.2589888381       -3.0460435712
 O          2.4586810604        2.8088095436       -4.7830633613
 H          1.5904747282        2.6990526201       -4.3209835004
 H          2.2330714800        2.8332427183       -5.7134688549
 O          5.4370889045        1.8943620992        3.7736615315
 H          4.7045647279        2.2738874504        4.2778086482
 H          5.2964769344        0.9375886700        3.7477363339
 O         -2.4372593484        4.4321987070        0.1218640391
 H         -2.4504241376        3.7558064853        0.8328179434
 H         -3.3195286609        4.3912052793       -0.3058372781
 O         -2.6874497397       -3.3826277217       -6.2520755468
 H         -3.2558323195       -3.2953498277       -5.4711983195
 H         -1.9436731063       -3.9317700828       -5.9527163859
 O         -0.1713506641        0.3359470510       -2.1679955039
 H         -0.6557967980        0.4904814274       -1.3451421530
 H         -0.6064725892       -0.3839211976       -2.6697597632
 O          1.0334491967        5.0178316330        0.5816866775
 H          2.0099481861        5.0325555318        0.5190546987
 H          0.7531073962        5.6213496439        1.2958757626
 O          2.7368980280        5.1034472495        3.2107942824
 H          3.2010190960        5.2187113977        2.3756658016
 H          1.9427498122        5.6485693350        3.1750890621
 O          3.2567644069       -0.0406703760        5.6877751333
 H          3.1250633497        0.9031801404        5.5713243242
 H          3.8449019889       -0.3219819247        4.9753661987
 O          0.7286356202        2.3650192826        6.1836559898
 H          0.7042678998        2.1243519431        7.1091437011
 H          0.4234222899        1.5720214031        5.6768797098
 O         -2.2147025142        5.0888312863       -3.6289945808
 H         -3.0054230802        5.0238844444       -3.0879581532
 H         -1.4629967395        5.0279671257       -3.0113851354
 O          6.5594080875        1.4722889178       -0.5115266454
 H          5.7512535890        1.3382009709       -1.0703313362
 H          7.2849842329        1.6372802972       -1.1115861852
 O         -0.4129537067        4.5659367708       -1.6401015245
 H         -1.1674383690        4.4419204485       -1.0297017648
 H          0.3043358373        4.8246054661       -1.0396368749
 O          0.0870065511        1.2592961981       -5.9808829839
 H         -0.4786098194        1.9266828283       -5.5638192757
 H         -0.5022234221        0.5366573080       -6.2387362569
 O         -4.8768976253        4.2326365860       -0.9199847503
 H         -5.1080345738        3.7460060139       -1.7196690159
 H         -5.2696563897        3.7566122142       -0.1725491021
 O          4.6603051387       -2.2111437204       -3.8096341504
 H          4.4690326179       -1.3199224008       -4.1264352255
 H          4.6469192459       -2.1756443578       -2.8355262958
