  386
       -651.40885378
 H          1.5641220107        1.6472005791       -0.3933209907
 C          1.4636449420        0.9506954940        0.4363510595
 H          2.3904370742        0.3894907575        0.5531112942
 C          0.3268056983       -0.0124229075        0.1589109880
 H          0.1990684789       -0.6643193545        1.0293612242
 H          0.5902293432       -0.6185815836       -0.7010072157
 N         -0.8877493340        0.7365893056       -0.1553074395
 H         -1.1135129754        1.3580121684        0.6158773129
 H         -1.6577237523        0.0919617187       -0.2749663705
 O          1.2132507736        1.7322945952        1.5945223770
 H          0.7291896490        1.1773080873        2.2467580705
 O          3.5502057640        3.1726231522        0.1235630843
 H          3.4927558790        2.8574703117       -0.7947124357
 H          4.1694461242        2.5425779487        0.5506259462
 O         -6.4561028048        3.7479985253       -3.5883609167
 H         -6.4684638751        4.7066763252       -3.5618075332
 H         -5.8015378988        3.5207936881       -4.2833924229
 O          3.6022284386       -4.0793583162        2.5683629944
 H          2.9336695463       -3.6513629167        1.9967256899
 H          3.5562483336       -3.6901537108        3.4592251480
 O          1.0362593662        1.6012657947       -4.2821681071
 H          0.3422869295        1.3982128431       -3.6335032738
 H          0.7720966995        2.4701704673       -4.6404739942
 O          2.9971392479       -0.2634074098       -2.8518658993
 H          2.9162806037       -0.2711915444       -3.8254793133
 H          2.5331141795       -1.0441694499       -2.4923684107
 O          0.9280304694       -5.2114814961        3.1389649038
 H          1.4176319603       -5.4310713143        2.3229153231
 H          0.0646444640       -5.6357193908        3.0300745714
 O         -1.0296773532        1.6426055949       -2.5805934070
 H         -1.9504471716        1.9339115834       -2.7001170864
 H         -0.9537412826        1.3669842516       -1.6107386910
 O          0.0756268183        3.9146368890        0.5255254490
 H          0.5053639181        3.8361710832       -0.3485034442
 H          0.4495799376        3.1771168420        1.0477812136
 O         -0.8655687059        5.9867541655        3.5208921913
 H         -1.1886166265        6.1424743150        2.6121244377
 H          0.0088147404        6.4051659952        3.5340478317
 O          0.9308591893        3.4459769652       -1.9573294717
 H          0.1569497923        2.9590780629       -2.3030640051
 H          0.9221680080        4.3615216852       -2.2999094160
 O         -6.9403662067        0.7218816624       -0.2176483187
 H         -6.4409681835        1.5376103948       -0.4222564987
 H         -7.8521039885        1.0068478971        0.0086110488
 O         -1.8111882817       -4.0328768727       -3.2362326826
 H         -1.5393982047       -3.8217146108       -4.1467745241
 H         -2.3390409405       -3.2633464906       -2.9332883533
 O          3.9599527582       -0.4556805229        5.7532640340
 H          4.4146786852        0.2301611715        6.2434563151
 H          4.4039558994       -0.4852543557        4.8738922867
 O         -3.4719040232       -2.0129019625       -2.7280431037
 H         -3.9622766288       -1.7110211688       -1.9334677984
 H         -4.1585728216       -2.2675103187       -3.3912383210
 O          5.6168886965        0.0880061684       -2.5137537250
 H          4.6513865673       -0.0905874161       -2.5236173728
 H          6.0059665630       -0.4757651820       -1.8082520430
 O          2.6281356568        3.9847644478        2.5161064420
 H          3.5125647274        4.4153125329        2.6512023099
 H          2.6651192579        3.6411360128        1.6031762435
 O         -2.5386869912       -0.4683499081        1.9999817556
 H         -2.2978345123       -1.0857578169        1.2883988984
 H         -1.7446967835       -0.3639075546        2.5502282083
 O          1.7435869584        6.4996922285        2.8288483510
 H          2.5312212985        6.9178859982        3.1790940710
 H          1.9826133420        5.5517268366        2.7098289268
 O         -1.3388002577       -3.4965881260       -5.8634378459
 H         -1.6002328434       -2.6030759110       -6.2103088337
 H         -1.9232789625       -4.1310210765       -6.2787397855
 O         -0.0336636078        2.4426812536        5.9921777147
 H          0.1495088703        2.7443695237        5.0863829418
 H          0.3870548693        1.5777591307        6.0687844685
 O         -3.6299967479       -4.1794187115       -0.3709580414
 H         -3.1985128063       -3.3118016661       -0.4659703620
 H         -4.3233805589       -4.2599019057       -1.0490189824
 O         -7.6536781817        0.7347678368        4.3004386275
 H         -6.7359109158        0.8218532173        4.5984351357
 H         -7.9015800303        1.5812231373        3.9001663061
 O         -9.3660307631       -1.9732057269        2.4302584324
 H         -9.7235214291       -1.6419232546        3.2538279620
 H         -8.5167059605       -1.4842237923        2.2932036611
 O          0.2804933375       -2.6404665565        3.4729571191
 H          0.2000904812       -2.5710835027        4.4479635285
 H          0.5918589701       -3.5559594350        3.3011522885
 O         -4.2447754153       -1.7735952163        4.8598354107
 H         -4.5943842601       -0.9100937074        4.5529803424
 H         -3.5587429682       -2.0375341798        4.2141771274
 O         -3.6750614632        2.5012509736       -2.7961824941
 H         -4.1481463945        2.4388720435       -1.9500874250
 H         -4.2039524659        1.9744763446       -3.4197614542
 O         -2.0064820609       -2.0058027608       -0.2502158698
 H         -1.3972353970       -2.6700696837        0.1453567020
 H         -1.6739554410       -1.8318205944       -1.1432451706
 O         -0.6803914027       -1.2710081043       -2.6535567019
 H         -0.8621614670       -0.3262067065       -2.7555499331
 H         -0.2877077426       -1.5730599501       -3.4945056587
 O          7.2929055025       -0.0961440699        1.7975116642
 H          7.6452080744        0.7165518869        1.3665567319
 H          6.3731920800        0.1168699823        2.0367122097
 O          4.1778804468       -0.9955354598        0.2004224949
 H          4.7005244050       -1.6155374572        0.7336148024
 H          4.2024880773       -1.3817872286       -0.6865433913
 O         -9.8697465535       -1.1778980918       -0.1665949855
 H         -8.9507345073       -1.4355899294       -0.3667199068
 H        -10.0215609727       -1.5471301372        0.7165596356
 O         -8.6267439269        2.1080192484       -3.3809080921
 H         -8.2271538572        1.2447462713       -3.1720930240
 H         -7.8804067710        2.6956231163       -3.5862703053
 O         -1.4292261048        4.7849020193       -2.8218835029
 H         -1.6744334689        4.1706933627       -2.1057950550
 H         -2.2821307354        5.1213253390       -3.1515298018
 O         -2.4551219154        1.5354401089        4.6024461316
 H         -2.2903661147        0.9218944144        5.3526501853
 H         -2.3838072355        2.4429799994        4.9468227193
 O         -3.3820274502        5.8212539347       -0.6181988452
 H         -3.0584107605        4.8860251586       -0.5931359985
 H         -2.7093831987        6.2976915129       -0.1099790464
 O          9.5494438608        1.7634246236       -1.8321662235
 H          8.9132137189        1.5168251138       -2.5509257305
 H         10.2935493386        2.1799419071       -2.2643082184
 O          6.9383609006        4.4581985574       -3.0269591227
 H          7.4630785826        5.1976192558       -2.7236897359
 H          5.9949634232        4.7423933089       -3.0081500769
 O         -3.9891293194       -4.7870769334        2.2131885305
 H         -4.7061519208       -4.3220124838        2.6721234328
 H         -3.9802733156       -4.4634758549        1.2883558756
 O         -0.0641330003       -5.1960832638       -1.6076827536
 H          0.7886658859       -5.2184917252       -2.0696741185
 H         -0.6990634838       -4.7772103173       -2.2295790925
 O          3.3569849200       -3.0377569907       -4.3135644819
 H          4.0322344024       -2.5013195804       -4.7593134075
 H          2.4821998478       -2.6626602353       -4.5243346379
 O          1.9757644601       -2.8092736403        0.8653693101
 H          2.1017797010       -2.6200852723       -0.0779259720
 H          1.0807088509       -3.1887735069        0.9448588603
 O          2.4437650114       -4.9250912792       -2.5887333185
 H          2.8940341753       -4.5928759247       -3.3770021883
 H          3.1227126281       -5.0346744653       -1.8950533794
 O          3.2392098495        2.3514954962       -2.4630765088
 H          2.3274383358        2.7238018262       -2.4161109219
 H          3.1120929486        1.3821681544       -2.5084513270
 O          3.9309755280        2.6284546722       -5.0428039178
 H          3.6990642504        2.4925433547       -4.0962909018
 H          3.4420400828        3.4124539381       -5.3099651965
 O          4.3425088701        4.8784470647       -2.8330399026
 H          3.7429450059        5.0714249559       -3.5689298686
 H          4.1188735218        3.9742185643       -2.5572437676
 O         -4.1146156680       -5.1903358564       -4.2426072805
 H         -4.6734847400       -5.3700532073       -3.4707181834
 H         -3.2461032828       -4.9598069897       -3.8678806053
 O         -2.3593554256       -3.7943259262        5.9329946409
 H         -3.1514601169       -3.3947998024        6.2953487333
 H         -2.3785226940       -3.6057454525        4.9701060292
 O         -1.9674543521        2.5203443904        2.0732293603
 H         -1.1615246147        2.8673384578        2.5089245314
 H         -2.3140807602        1.8577732806        2.6829481049
 O          0.7883756766       -2.1834945329       -4.7337178607
 H          0.8116947561       -1.4069028565       -5.3413548266
 H          0.2549749989       -2.8542184059       -5.1791423144
 O         -9.5443160660        3.3661994256       -1.2751163965
 H         -9.2104512927        2.8821188746       -2.0787497421
 H        -10.3701435183        3.7749434740       -1.5318054403
 O          6.5287589620        3.1591179655        2.4947444795
 H          5.9343037947        2.5215916558        2.0596801123
 H          7.3459340314        3.0944622083        1.9857086268
 O         -8.1167786262        2.7155578039        2.4339979894
 H         -8.2444913597        3.6047619174        2.0338737868
 H         -8.6767549965        2.1333569239        1.8911793500
 O         -2.7828806308       -0.0456018445       -4.3175608626
 H         -2.8294606411       -0.7699584138       -3.6497680652
 H         -3.7163038582        0.1869460530       -4.4554251309
 O          2.2470350904        5.0543487869       -4.6346506518
 H          1.8648219036        5.6369419918       -3.9599045336
 H          1.4726243267        4.6332429165       -5.0340019278
 O          5.6801315788       -2.7821103115        1.6323275502
 H          4.9405668284       -3.3828030712        1.8818813764
 H          6.4838710705       -3.2446106328        1.9263922424
 O          6.0052380101        2.4877399923       -1.2576337419
 H          5.8009205747        1.6587115288       -1.7274761935
 H          6.4275484086        3.0778083401       -1.8973117007
 O          2.2832458437       -0.9780065433        2.7651618407
 H          1.5639522192       -1.4737907401        3.1988459536
 H          2.3444350903       -1.4160834656        1.8963988875
 O         -3.9274908372        4.1743681824        2.7606728779
 H         -3.7201197338        4.3438088996        3.6833257702
 H         -3.1516017136        3.6800020385        2.4007279085
 O          0.7740298600       -0.0371335988       -6.2869427543
 H          1.6811584248       -0.1011183421       -6.6058759526
 H          0.8437750824        0.6162007991       -5.5372849506
 O         -2.3543529849       -2.9337275524        3.3743531391
 H         -2.7564880438       -3.6108850181        2.8025658700
 H         -1.3968657580       -2.8427513411        3.1853966727
 O          4.7030535312       -2.5710403762       -1.9943158252
 H          4.1092458400       -2.7187816013       -2.7518350475
 H          5.5989287698       -2.7576507616       -2.3442487988
 O          6.2000548683       -5.7498045389        1.0619629968
 H          5.4973928979       -6.2872655165        1.4905191190
 H          6.7346844250       -5.4182469506        1.7966962349
 O          6.7231588629       -2.8497802455        5.0307882671
 H          7.1281678061       -3.0520761047        5.8734814018
 H          6.9356822204       -1.8881922272        4.8491153323
 O          1.2346682919       -0.1548231649        5.5616372745
 H          2.2081162076       -0.1968494037        5.6080279068
 H          0.9069538977       -0.9762472917        5.9522617328
 O          3.3876412304       -0.0198123397       -5.5630210654
 H          4.2508878011       -0.4516402423       -5.5856833033
 H          3.5654569788        0.9357697832       -5.5025450615
 O          4.8760341035        5.3189189779        2.5224323660
 H          5.5757673995        4.6391364729        2.5641174467
 H          4.8534461914        5.6347340585        1.6072028368
 O          0.1038732110        3.4899973845        3.4606602976
 H         -0.2456002624        4.4034154152        3.5185880204
 H          1.0058656755        3.5630884090        3.1184649758
 O         -8.3232255214        4.8410895395        0.8512929858
 H         -8.6549273757        4.3975610926        0.0570263759
 H         -7.3886426882        5.0501395491        0.7009384430
 O          1.7212005171        6.8015661869        0.0743626181
 H          2.6360000783        6.4839564707       -0.0719000760
 H          1.6292446210        6.7927016088        1.0413852714
 O          7.0844772876       -3.1792014588       -3.0826390255
 H          7.8463144334       -2.6056168828       -3.3323191811
 H          7.3972823017       -3.6811092563       -2.3189026856
 O         -5.2946863390        0.9379031265       -4.3425960282
 H         -5.9579249564        0.5124960041       -3.7501745485
 H         -5.7611141459        1.2698097232       -5.1092239160
 O         -5.7089329770        2.9506956545       -1.0264193402
 H         -6.1062512490        3.2648792507       -1.8537839938
 H         -5.6948730944        3.6977791331       -0.3938894972
 O         -5.8891721349       -3.6588597335        3.9389100709
 H         -6.0844169527       -4.2490006859        4.6652787199
 H         -5.3531354004       -2.9143427333        4.3051496689
 O          5.7472205453        1.7399897588        4.8195717020
 H          6.1787644933        2.3653338106        4.2213040258
 H          4.8537406769        1.6246429583        4.4563719086
 O          4.1067430292       -4.6925131978       -0.4815137556
 H          4.8694418784       -5.0533808179       -0.0039414140
 H          4.3891784459       -3.8343640897       -0.8618920503
 O         -4.9263596489        0.6707674631        4.0790192774
 H         -4.0593054260        1.0479157697        4.3251181571
 H         -5.1474598715        1.0732874641        3.2126036286
 O         -4.8499611105       -1.1670299531       -0.6351218053
 H         -4.5896564495       -0.2385792886       -0.4848771408
 H         -4.6843117689       -1.6237308716        0.2265928780
 O          9.0995707210       -2.2526203463        1.3518019772
 H          9.5975452000       -1.8800519505        0.6077705671
 H          8.5082925175       -1.5390161454        1.6353313890
 O          4.9054060560       -0.8234949614        3.2837821182
 H          5.3328967807       -1.5894860806        2.8589322920
 H          3.9592726005       -0.9063845653        3.0584167621
 O          4.8833603316        1.2734316166        1.4084959993
 H          4.6395179442        0.4908378790        0.8688224341
 H          4.3263564202        1.2262355713        2.2181915154
 O          9.5793725248       -0.8819384671       -1.0187688342
 H          8.6009307065       -0.9675788198       -0.9584794952
 H          9.7417554556        0.0614823024       -1.1687419125
 O          4.1952453019        5.7073474097       -0.1873271489
 H          4.3846197855        5.7425476593       -1.1339585460
 H          3.9680733541        4.7571200126       -0.0351145266
 O          7.8876066984        0.9485280127       -3.7291193606
 H          7.5683554005        1.5813024747       -4.4113617703
 H          7.0792849556        0.6363214929       -3.2898438941
 O         -4.0357071571        5.1791440082       -3.2263466635
 H         -3.9904950451        4.2122539807       -3.0484596279
 H         -4.0304212118        5.6056890452       -2.3569123793
 O          3.9858433694       -3.1285853091        5.0745412215
 H          3.7896228023       -2.2507114583        5.4331379167
 H          4.9582831181       -3.1709271159        5.0418865830
 O          4.0603841886       -6.7485376848        2.3125196142
 H          3.8643798164       -5.8306347664        2.5788336794
 H          3.3311302052       -6.9894914899        1.7330399716
 O         -1.5238440245       -5.9007080760        2.1280417051
 H         -1.6904059714       -6.3641972479        1.2751671789
 H         -2.4112179609       -5.6695546544        2.4385605793
 O         -0.4650106327       -3.8954192386        0.6961048736
 H         -0.3010121322       -4.3748115684       -0.1425829308
 H         -0.8427280132       -4.5660383100        1.3068120511
 O         -4.5597031572        3.5690665436       -5.5186673441
 H         -4.2363353143        4.4234430933       -5.2164200705
 H         -3.7655696630        3.0162893714       -5.6264501964
 O         -5.5574804287        5.0514729567        0.6520591129
 H         -5.1440432157        4.8473489433        1.5034651255
 H         -4.8523806046        5.5231662485        0.1576344279
 O          7.9974902136        2.0862959188        0.4461043524
 H          7.1877733883        2.2252715236       -0.1044170991
 H          8.7112543491        2.0121250570       -0.2008564142
 O         -2.2073776198        4.1721548191        5.3258294392
 H         -1.5064562673        3.8483469961        5.9080548807
 H         -1.8176802245        4.9021925813        4.8253916621
 O         -5.5723949288        2.1644254117        1.9827577502
 H         -6.5271110950        2.3778787003        2.1021070031
 H         -5.0742374149        2.9381595372        2.3030816464
 O         -2.1823010476       -0.5099570777        6.2699773403
 H         -1.4061476851       -1.0772784960        6.2823090471
 H         -2.9246649780       -1.0399033734        5.9328147856
 O         -7.1397034029       -0.0942716381       -2.7510999027
 H         -7.2548251649       -1.0465007009       -2.8616967269
 H         -7.0061290315        0.0804079671       -1.7877333596
 O         -6.2889814697       -5.9176400506        0.3781183630
 H         -6.7901723308       -5.2334853101        0.8526196927
 H         -5.4636127992       -6.0281910792        0.8603336200
 O          7.4438547477       -0.3845530233        4.5730927740
 H          7.5656955045       -0.3231661092        3.6129233663
 H          6.8124266558        0.3326296991        4.7855098885
 O          3.2912025517        1.4982992938        3.5471577786
 H          2.8512632153        2.3137349285        3.2596111350
 H          2.6908758924        0.7565979500        3.3730065977
 O         -0.2123268568        3.8433599051       -5.0441509359
 H         -0.6287799092        4.2140299073       -4.2382178352
 H         -0.9166428555        3.3286200189       -5.4713314867
 O         -7.4469749663       -3.8039009353        1.6932129031
 H         -6.8441242505       -3.6458601667        2.4411147706
 H         -8.3060007110       -3.4581697018        1.9767544281
 O         -5.6610508544       -4.8610804018       -2.0000249469
 H         -6.3850214385       -4.3012594497       -2.3092958897
 H         -5.9859373067       -5.3684615178       -1.2260951566
 O          1.7771167169       -4.6059137472        5.7511939906
 H          2.6556036438       -4.2206576257        5.6087326969
 H          1.5187134916       -4.9972432467        4.9022576169
 O          1.7064945002       -2.4086176764       -1.8088663002
 H          1.9083778945       -3.2976937629       -2.1587443611
 H          0.7955889006       -2.1968242625       -2.0613155671
 O          0.9122755617        6.0906618868       -2.4419907166
 H         -0.0531683827        6.0268198693       -2.4889173543
 H          1.1491948409        6.4257564553       -1.5594829617
 O         -3.8147685249        1.2040654393        0.2124237647
 H         -4.5606662743        1.6134361484        0.6865757307
 H         -3.3202107329        0.7259595104        0.9021315455
 O         -2.1998232815        2.1155694064       -5.8034979493
 H         -2.1212920369        1.6047777462       -6.6121656710
 H         -2.2486635247        1.4601922101       -5.0810698434
 O         -1.0744041070        6.3096803414        0.8183895507
 H         -0.3877007753        6.9146034080        0.5250997836
 H         -0.6683441681        5.4200061470        0.7290049311
 O         -1.8024287424       -1.0073895804       -6.6017873210
 H         -2.1978675419       -0.6873605499       -5.7597714335
 H         -0.9076425809       -0.6377775591       -6.6397635641
 O         -9.4166466296        1.3295669286        0.5142023257
 H         -9.7661679867        0.4589512965        0.2099314442
 H         -9.6609618740        2.0137033979       -0.1322254582
 O         -7.5861744485       -2.9577026152       -2.8599071343
 H         -8.4998219530       -3.1704453826       -3.0479102359
 H         -7.5395591646       -2.7175070665       -1.8900581586
 O          5.5936823775       -1.4903131261       -4.8240838366
 H          5.6911306019       -0.9239791040       -4.0357708501
 H          6.2230609360       -2.2069344416       -4.6942263081
 O         -4.7550581956       -2.0631110856        1.8228841710
 H         -5.5906989670       -1.6276430172        2.0757418771
 H         -4.0327056915       -1.5133099560        2.1603964897
 O          9.1012848707       -1.5367660876       -3.6410888396
 H          9.4876322262       -1.4288536395       -2.7529725778
 H          8.7430115422       -0.6654298220       -3.8752799966
 O          0.0567737281       -2.6339995283        6.1433020096
 H         -0.7947002127       -3.1081215525        6.2397620926
 H          0.7313023583       -3.3550371090        6.1767923327
 O          7.7052056537       -4.1256694864        2.8289792588
 H          8.4619480671       -3.6031015243        2.5333752594
 H          7.4133830975       -3.7543704291        3.6834602567
 O          6.9466417782       -1.2336583572       -0.6435141444
 H          6.9100707694       -0.9045723806        0.2746081201
 H          6.9473207900       -2.2083906732       -0.5879270961
 O         -7.0437383961       -0.7016906361        2.1438772267
 H         -6.9599257141       -0.1303611491        1.3578527782
 H         -7.2230012064       -0.1350375267        2.9276975477
 O         -2.1757287570       -6.5228875925       -0.3578351663
 H         -2.7632761752       -5.7479590259       -0.4338014546
 H         -1.4223654713       -6.3310739050       -0.9296184719
 O          1.9215280052       -5.8620132960        0.6755836315
 H          2.6662546388       -5.3380835497        0.3255769210
 H          1.2764905360       -5.9369702724       -0.0303909228
 O          7.5732440469       -3.8619297965       -0.4406016084
 H          8.2482380227       -3.5663257657        0.1888709476
 H          7.1038065063       -4.5974428749       -0.0209890648
 O         -5.2415571606       -2.7693482190       -4.5205908882
 H         -6.1037187387       -2.8599359973       -4.0999276397
 H         -4.8810396445       -3.6804751923       -4.6053544272
 O         -2.3247674244        3.4080089566       -0.5834413239
 H         -2.8332283685        2.6363953482       -0.2719076494
 H         -1.5430143422        3.4855521294       -0.0019532460
 O          6.7021095988        2.7864308914       -5.2267576929
 H          6.8692344599        3.4892814011       -4.5820059244
 H          5.7361341602        2.6760340892       -5.2548214595
 O         -0.2914053595        0.3741364919        3.4090855447
 H         -0.9253091514        0.9406100210        3.8805065235
 H          0.3247805914        0.0735652362        4.1036919529
 O         -7.3277947754       -2.1607628956       -0.4343425673
 H         -7.2707090865       -2.7727195353        0.3281752978
 H         -6.4731158649       -1.6792721769       -0.4750336269
