  116
       -193.00654732
 H          2.0112534042        1.5280431786       -0.7872725192
 C          1.5330985989        0.5475589732       -0.7778834450
 H          1.2351123119        0.2802490568       -1.7948175723
 C          0.3146711810        0.5840890146        0.1417463424
 H         -0.1964008262       -0.3751301738        0.1004618881
 H         -0.3582192438        1.3686667262       -0.2041390744
 N          0.6560411305        0.8512883615        1.5288656395
 H          1.1419643201        0.0624717694        1.9401733357
 H          1.2664378062        1.6650576991        1.5844656657
 O          2.5121558382       -0.3677658736       -0.3014657336
 H          2.1002290982       -1.2645217893       -0.2402231648
 O         -2.3858380654       -1.2092602270        0.0537771602
 H         -1.7599320244       -1.6927731285        0.6302200808
 H         -2.8680464672       -0.6057994004        0.6553830612
 O          5.2036234595        2.2592833301        0.5683346229
 H          6.0838177729        2.6350833433        0.5699162797
 H          5.1068209290        1.7736898035       -0.2751727236
 O          3.9895238302        0.2183865294        1.9159531249
 H          3.3591483650        0.0410216957        1.1894903761
 H          4.5403650160        0.9514158339        1.5972659712
 O          2.1692725822        4.2190027736       -1.0423221937
 H          2.3523510914        5.1355175916       -1.2481793700
 H          2.6410730971        3.6784471178       -1.7305083939
 O         -3.6004043054        2.2581302570       -2.9452367944
 H         -3.8873020813        2.9213799946       -3.5736795760
 H         -2.6265996481        2.2153092009       -3.0123756491
 O         -4.4867129608        3.1431949115       -0.4340076592
 H         -4.1398330695        2.8051637470       -1.2748933743
 H         -3.7036642600        3.3193616818        0.1337617757
 O         -0.5313501505        3.5616838860       -0.9455584162
 H         -0.6665751176        3.0365872061       -1.7520640787
 H          0.3983210639        3.8326276105       -0.9470680195
 O          0.9383744995       -1.3654747921        3.6424686871
 H          1.5650237385       -0.6733859880        3.9179508907
 H          0.1265191621       -1.1810247926        4.1695458141
 O         -4.2969730174       -0.4603818297       -2.7474202256
 H         -4.7608062804       -0.5678512743       -1.8982442051
 H         -4.2209892020        0.4970185625       -2.8805268926
 O          3.3778491667        2.7474805155       -2.8544311246
 H          3.9111904791        2.0351628540       -2.4550858243
 H          2.6993388931        2.3014146586       -3.3925877436
 O          0.2666495368       -2.4907038113       -2.5994647219
 H         -0.3981392728       -1.7708893650       -2.6017849601
 H         -0.2530324530       -3.3003888064       -2.7715807843
 O         -0.7179410615       -2.4527651823        1.7476961155
 H         -1.5290295585       -2.6081368539        2.2798874218
 H         -0.1020256525       -2.0218776300        2.3669971974
 O         -0.9014940492        1.8791542570       -3.0874444115
 H         -1.0862084629        0.9572502318       -2.8020041207
 H         -0.0735890152        1.8208659964       -3.5940789273
 O          4.6694955416        0.6829238137       -1.5823987756
 H          3.9219545976        0.2606710492       -1.1179115994
 H          4.9781947496       -0.0209191193       -2.1750692315
 O          2.5322306531       -3.3641951429        2.5450524012
 H          2.0816182714       -3.4742846816        1.7026807638
 H          1.9929341200       -2.7453485388        3.0628447997
 O          1.2645915530       -2.7537881922       -0.1575923036
 H          0.8941172420       -2.7328461376       -1.0721726383
 H          0.5015735211       -2.7705972308        0.4423934096
 O         -5.7122422741        1.4429435462        1.0384680714
 H         -5.2705588461        2.1202492550        0.4329472643
 H         -6.3569989606        1.9254535276        1.5552064948
 O         -2.3267444935        3.3818108654        1.1085158640
 H         -1.6228254667        3.5200886181        0.4526920359
 H         -1.9451031631        2.8496349160        1.8247841653
 O          2.6991506292        0.6527131142        4.2081573327
 H          3.2103810677        0.5558030792        3.3714535016
 H          3.3181607931        0.5240160902        4.9267939202
 O         -3.1156086131       -2.2560592828        2.9378043180
 H         -3.7589561661       -2.7733551762        2.4186584235
 H         -3.3183055415       -1.3343270836        2.6950559540
 O         -1.3959678259       -0.6443629852        4.6681303201
 H         -1.4855885294        0.1958626819        4.1790289461
 H         -2.0707081169       -1.2444023171        4.3309797272
 O          0.9702271069        2.9000765667        3.9121199712
 H          1.4941479388        2.1298789100        4.1747922815
 H          1.4226754810        3.2503314264        3.1345715286
 O          4.6504999983       -1.6765881627       -2.9086052901
 H          4.4124090690       -2.2282677805       -2.1111923079
 H          5.2119112017       -2.2325253357       -3.4486346196
 O          1.5039036465        1.3683611719       -4.3269840543
 H          1.5763355597        1.5270351449       -5.2685860097
 H          1.7514460721        0.4116000944       -4.1970761498
 O         -5.7476525492       -0.8307770540       -0.3921998753
 H         -5.7328372848       -0.0181145838        0.1543730982
 H         -6.6662327644       -1.0039497315       -0.6021172679
 O         -1.5161132372       -4.4924131925       -2.6615170437
 H         -1.4347865370       -5.3305612082       -2.2063203785
 H         -2.2836440510       -4.0297530832       -2.2605555867
 O         -3.4499045356        0.2892683661        1.9977420861
 H         -2.8174662077        0.9159609095        2.3825309431
 H         -4.2580064887        0.7809250648        1.7709223787
 O         -3.5236535050       -3.0972782266       -1.5053153800
 H         -3.9822883443       -2.5976739387       -2.1870050060
 H         -3.1213032972       -2.4190189422       -0.9196612188
 O         -1.3086109866        1.6396351984        3.0721643308
 H         -0.6201536574        1.2518124125        2.4456623561
 H         -0.7643885809        2.2450717232        3.6063254493
 O         -4.8582131221       -3.1195984161        1.0173982902
 H         -5.1750925910       -2.2780155769        0.6526115931
 H         -4.4334838272       -3.5582661382        0.2706301613
 O          2.5657168892        3.1375520841        1.4695548074
 H          2.3090706058        3.6111500125        0.6615142411
 H          3.4966379109        2.9183608899        1.3433495702
 O         -1.6259770209       -0.5898597942       -2.3941095142
 H         -2.5210038389       -0.6511539118       -2.7820190782
 H         -1.7991931081       -0.6910423153       -1.4339457022
 O          4.0299421867       -3.1468665355       -0.8464637568
 H          3.0897202110       -3.2134050430       -0.6440387036
 H          4.4667921197       -2.8944030620        0.0005989854
 O          4.8897495720       -2.4044679772        1.5723777275
 H          4.1790449266       -2.8686933892        2.0543756648
 H          4.7363254486       -1.4638556020        1.7487561598
 O          2.1943716583       -1.1358406274       -4.0350467685
 H          1.5594469419       -1.7101110555       -3.5725684886
 H          3.0684968914       -1.3096666817       -3.6401121899
