  114
       -193.43516664
 O         -1.3844591468       -1.3569451500        2.7823274622
 H         -1.0927136153       -1.1146817458        1.8366668276
 H         -0.7000979904       -1.9924329995        3.0930394521
 O         -1.6194841048       -1.2156454576       -3.2771990993
 H         -1.9585623912       -1.6769952290       -2.4932821195
 H         -1.2207211644       -1.9216130589       -3.8372098744
 O          5.0051209531       -2.6517954284        0.8730256312
 H          5.3323067200       -3.0852249925        0.0843477218
 H          5.0278169140       -1.6877182019        0.6876791586
 O          2.3566684140       -2.8991397499        1.3114033852
 H          2.0555369755       -3.1235895921        0.4174289506
 H          3.3346889030       -2.9542299920        1.2735757172
 O          2.3453684607       -0.2433600627        1.5052441453
 H          2.6004764367        0.0700512528        2.3956270164
 H          2.2604730593       -1.2209862847        1.5178939940
 O         -2.5776156270       -2.7305950592       -1.1619975418
 H         -3.4967579640       -2.6895347340       -1.5255395118
 H         -2.7455192949       -2.8993577875       -0.1998895160
 O          2.3853528429       -2.6796363238       -3.9901624287
 H          2.4539167662       -1.6894601591       -4.1157108054
 H          2.9496727045       -3.0659852897       -4.6593725193
 O          2.5064447676        2.9882313982       -1.1145295187
 H          3.0414763805        3.3697181364       -0.3840829457
 H          1.7947360721        2.5006012893       -0.6637945705
 O         -5.1298438432       -2.4009553384       -1.7104049056
 H         -5.4237673019       -1.7071128023       -2.3319197321
 H         -5.3660440796       -2.0797867137       -0.8318009867
 O          5.2923045966        1.7385548317        2.4445293326
 H          4.5437902893        1.4394119439        2.9977090698
 H          6.0002980427        1.9793994045        3.0417644635
 O         -3.7193818024        0.3108659682        2.9288238624
 H         -2.9573581200       -0.2794687417        2.8625767779
 H         -3.4241710769        1.1912868384        2.6518544303
 O          0.2711991194        0.6575533168       -3.0395096962
 H          0.7615162173        0.2997146026       -2.2635326345
 H         -0.4057424107       -0.0224520659       -3.2341417173
 O         -3.2329709317        0.9688004438       -3.3899144432
 H         -2.6172597103        1.7124881714       -3.3558725515
 H         -2.6877645410        0.1646065168       -3.4748366675
 O         -2.8628217106        3.5106935700       -0.5561800257
 H         -2.2190091455        3.1957743799       -1.2405290862
 H         -3.1069344894        4.3953218829       -0.8321621246
 O          0.7429050724       -2.7326474857        3.5820529755
 H          1.3193460310       -2.9243756287        2.8259834419
 H          1.1996070874       -2.0804743039        4.1322396654
 O          3.7852760123        3.7335545456        1.1302603075
 H          3.0785690370        3.7742140013        1.7901819271
 H          4.4140508373        3.0770118471        1.4655925628
 O         -3.1261156318        2.9688249333        2.1506555066
 H         -3.9252387769        3.4196491861        2.4289064275
 H         -3.0177823541        3.1489371552        1.1990540915
 O         -0.7210388613       -4.4515075574       -1.8686364031
 H         -0.9740470635       -5.3142351954       -1.5405945989
 H         -1.4545891494       -3.8331512304       -1.6156003313
 O          2.5720120074       -0.0928592070       -4.3113756522
 H          1.7068151948        0.2820714492       -4.0552192183
 H          3.1999811414        0.2587110528       -3.6616163037
 O          1.7154445507       -0.5464883708       -1.1708367312
 H          2.5633591899       -0.1613184562       -1.4686106996
 H          1.7754771026       -1.5113805099       -1.2869159228
 O          1.4016901738       -0.5404757152        5.2917200655
 H          0.5181762917       -0.1458092565        5.1190325557
 H          1.4353560811       -0.7522480297        6.2246071226
 O          3.0395046279        1.0302835303        3.7653891184
 H          2.5045144443        1.8293278742        3.5360503934
 H          2.5445336970        0.5362462179        4.4384866523
 O          0.8063992836        4.6484410152       -2.4252165403
 H          1.2202230557        4.9002224046       -3.2512136983
 H          1.4696018351        4.1081861990       -1.9433377197
 O         -5.8404911804       -0.1577663442       -3.1119812742
 H         -5.0567414664        0.1740408107       -3.5679120163
 H         -5.9383807599        0.4022032533       -2.3340974778
 O         -4.9761211005       -0.8437279658        0.7767820011
 H         -4.7998090054       -0.1485151445        0.1175902658
 H         -4.7786959980       -0.4263489079        1.6336228043
 O         -0.8554900572        3.0855434213        3.9001565197
 H         -0.9028295274        2.1822837735        4.2533865907
 H         -1.6091884416        3.1718690571        3.3002495995
 O         -4.4204722760        1.2175594002       -0.9685678346
 H         -3.9795210267        1.0286914909       -1.8229257691
 H         -4.0485430324        2.0647464284       -0.6908785775
 O          3.8687347296        0.8371123540       -2.0409470428
 H          3.4597845432        1.6995631113       -1.8188574461
 H          4.4260074042        0.6000807410       -1.2792460963
 O         -1.2138324765        2.8508128955       -2.5447906612
 H         -0.5926497879        3.6056312697       -2.5397918203
 H         -0.6302298849        2.0755410908       -2.7030655692
 O          1.7065227837       -3.2631646306       -1.3971022915
 H          0.8383904645       -3.6952671677       -1.4987938468
 H          2.0719610614       -3.2107841879       -2.2966630101
 O         -0.3042981135       -3.2509480319       -4.3597844866
 H          0.6420951960       -3.0291446631       -4.3140240541
 H         -0.4662019998       -3.8591852670       -3.6231291313
 O          1.6263537095        3.0645601309        2.8096273124
 H          0.7931990555        3.2467623813        3.2876299553
 H          1.3469929964        2.6588537562        1.9647478564
 O         -3.2500503125       -2.9118002769        1.3712681282
 H         -3.9803764500       -2.2811943586        1.2294636220
 H         -2.6465208873       -2.4864445573        2.0000174287
 O         -1.0387625314        0.4076470551        4.6688373062
 H         -1.8128942792        0.3061523118        5.2252427794
 H         -1.1687008431       -0.2362295129        3.9131809053
 O          4.7446570017       -0.0059187990        0.3822924323
 H          3.8054846446       -0.0490842734        0.6887348029
 H          5.1708858863        0.6045725974        1.0008571863
 O          0.7586054588        1.7163875244        0.5288909185
 H          1.2964354630        0.9293893415        0.7526179229
 H         -0.1210617397        1.3931548811        0.3173057062
 O         -0.7498694660       -0.8057144730        0.2330687418
 H          0.1450239027       -0.8002848885       -0.1385642941
 H         -1.2889390285       -1.3917893859       -0.3137147810
 O         -6.0818432538        1.8441491514        2.2192994561
 H         -6.3577178930        1.2839539121        1.4898273271
 H         -5.5396608093        1.2918574271        2.7909732047
