  384
       -651.83670363
 O          0.2643340571        1.5328026078        4.1065096871
 H          0.6214775558        1.1252610973        3.2902690762
 H         -0.2024828779        0.8375152604        4.6296124864
 O         -3.0447136499       -2.8456454450        0.3689539040
 H         -3.5078520141       -2.5260946509        1.1813497889
 H         -2.2022741238       -3.2567459928        0.6462426912
 O          3.1811400392       -2.1175915479        5.5860536064
 H          4.0445041095       -1.6838370200        5.5439150255
 H          3.3165718359       -2.9800257947        5.1459688362
 O          3.9862885623        0.2944861598        3.2467093579
 H          4.5750394693       -0.3796799715        3.6236241012
 H          3.1449735048       -0.1641371890        3.0432403560
 O          2.1053680965       -5.6235769686       -0.0183781046
 H          2.8009209014       -5.7708159947        0.6699341926
 H          2.0554966319       -4.6444126411       -0.1446373195
 O         -1.5438883570        2.5186878417        6.7672522190
 H         -0.8134083708        3.1037652159        6.5276036722
 H         -2.3243746393        2.8758176768        6.3198867864
 O         -0.9501806678        0.0699053691        5.8990408555
 H         -0.1394735347       -0.1812496054        6.3865571746
 H         -1.2622547020        0.9052717329        6.3167940957
 O         -8.6044576859        0.0569983890       -0.9737391334
 H         -8.9174030967       -0.4509330717       -0.2032490892
 H         -7.7550627800        0.4370729376       -0.6902677470
 O          6.2384780424        1.2766891974        1.0266736499
 H          6.5562930894        1.0466533090        1.9128801020
 H          5.4868359974        0.6572794623        0.8361080517
 O         -4.4741463245       -1.8957681302        2.3405024236
 H         -4.5700517095       -2.5057642604        3.1027845462
 H         -3.9928522456       -1.1172159169        2.6920321521
 O          3.3334738182        6.6363000340        0.6195817619
 H          3.9145945413        6.4390982686        1.3760663221
 H          3.7079048383        6.1338476359       -0.1177688324
 O          4.7605503068       -3.1369936663       -1.4461081780
 H          5.0620897459       -3.7687186042       -2.1293692192
 H          5.2223281974       -2.3068300496       -1.6090827033
 O          1.8145892198       -3.3854657214       -5.8818958109
 H          2.7753216445       -3.3274933640       -5.9651730985
 H          1.6814700898       -3.9186825269       -5.0753007134
 O         -4.3237925852       -1.2218789728       -1.3422838229
 H         -5.0090428704       -0.9093372051       -0.7181066886
 H         -3.7725790345       -1.8211136774       -0.8073477792
 O         -0.1711481715       -1.9086939901       -3.4511256278
 H         -0.3284189707       -2.5120125313       -4.2077636343
 H         -0.9921258188       -1.3991119223       -3.3571983080
 O         -2.7203374397       -1.0097806308       -3.4287798315
 H         -2.9602270191       -1.9327967921       -3.6583936688
 H         -3.2451132480       -0.8038195376       -2.6328338277
 O         -0.8967913825       -3.7405533762       -5.2811426844
 H         -0.7554148491       -4.6538990119       -4.9296188104
 H         -0.2994383247       -3.6530884093       -6.0280110499
 O          0.7628166603        6.5498026569        1.4011797440
 H          0.7658067318        6.9563304771        2.2667764075
 H          1.6937567002        6.5617493243        1.0855158729
 O         -8.4248564227       -3.7832639170        1.3764589122
 H         -8.0874501415       -3.8277205731        0.4725753589
 H         -7.7011841506       -4.1212097138        1.9312880099
 O          2.3133299519        3.7178385045        2.0238372715
 H          3.2085248794        3.5197083268        1.6647005537
 H          1.8878052000        4.2410727015        1.3203037033
 O         -0.2666416978       -4.0280322350       -1.8660488762
 H         -0.2748235298       -3.1546850253       -2.3147309652
 H          0.4285212865       -4.5204741038       -2.3469424441
 O         -2.6434391361        4.5011046675       -3.2983622881
 H         -3.0844711113        3.8810146393       -3.9143044776
 H         -3.3483113458        5.0923348667       -2.9672981585
 O          3.6407776371        1.0338458094       -5.4822002934
 H          2.9746431644        0.3806714888       -5.7606215569
 H          3.1558324856        1.8598292295       -5.3356889928
 O          1.5096189193       -0.6921017367       -5.6429036940
 H          0.6579941566       -0.4332825120       -6.0313580110
 H          1.5745578199       -1.6645001394       -5.7348227185
 O         -6.3005098740        1.3266723390        3.7179492853
 H         -6.2802514478        2.3074839595        3.6856400575
 H         -7.2315648106        1.0741828136        3.6102854304
 O          2.5002074360       -2.0899531882       -2.7707985192
 H          3.0486445301       -1.2683633044       -2.7545473582
 H          1.6003800471       -1.8130369280       -3.0094871827
 O          3.8839899320       -5.8624815534        1.8630975990
 H          3.7919771062       -5.4422048620        2.7366906555
 H          4.6577677786       -5.4251349824        1.4537410418
 O         -6.0363225156        3.9772329063        3.4216550494
 H         -5.2338129621        3.9714256858        2.8486072763
 H         -6.6743608539        4.5183871016        2.9506805545
 O         -8.5063000754        2.5897650078        1.1038412645
 H         -8.7184186831        2.0598265059        1.8866245554
 H         -7.7601099799        2.1381820031        0.6606111370
 O          4.6703387586        3.4204712341        0.9274348978
 H          5.2798847195        2.6589188404        1.0165578044
 H          4.3506759327        3.4011545693       -0.0000316984
 O          3.4878961007        3.0106395103       -1.4154965155
 H          2.8679612460        3.7474348585       -1.2659231889
 H          2.9932033916        2.1970844879       -1.1473373937
 O          1.6884428202       -1.0499930797        3.5193482447
 H          1.4527657871       -1.8618645160        3.0458757511
 H          2.0850934451       -1.3639534481        4.3491839911
 O         -9.4686892087        2.5959278736       -1.5277643997
 H         -9.2755072167        1.6432667978       -1.4566967680
 H         -9.4979475958        2.8801794229       -0.6046690194
 O         -2.3132342281       -4.5954296690        3.0424729081
 H         -1.9417538163       -3.6944796306        2.8950203265
 H         -1.5848832060       -5.0820867179        3.4667982997
 O          1.5407780893        4.5317276511       -0.4612945247
 H          0.9256318036        3.8006065620       -0.6761479948
 H          1.0994620183        5.3415629288       -0.7628547043
 O          6.0883480113       -0.6767480703       -1.5654973709
 H          6.9460570105       -0.8531735587       -1.1351352076
 H          6.0122192619        0.2941555129       -1.6980457845
 O         -8.9227863947        0.7929819891        3.1739059136
 H         -9.6557415747        0.6606710960        3.7733589789
 H         -8.9008059748        0.0052730121        2.5693875835
 O          2.0987082258       -2.9839364883       -0.1884999280
 H          1.3512204864       -2.3556841320        0.0835437722
 H          2.4273413036       -2.6775277627       -1.0513840894
 O         -2.2506238066        3.8494903583       -0.6979576200
 H         -2.1985955566        4.0572599053       -1.6495729544
 H         -2.8108368483        3.0562633637       -0.6997676743
 O         -0.5693136124        4.1437338762        1.4752052300
 H         -0.1107072989        4.9915117588        1.3407821109
 H         -1.1402873898        4.0058074148        0.7041126647
 O         -2.9476377786       -1.7201592491        6.1814218772
 H         -2.2550405108       -1.0514851089        5.9867633338
 H         -3.7026144358       -1.1938953828        6.4581380965
 O         -4.6690646629        0.9667579562        1.6142851656
 H         -5.2392509117        0.9697881320        2.4098865510
 H         -4.1170410297        1.7490605001        1.6775436563
 O         -1.3325301128        1.4403369844       -3.7305973400
 H         -1.7143358818        0.6170244805       -4.0528484902
 H         -1.2665617704        2.0413416395       -4.5008146970
 O          2.2350399174        0.8384035747       -0.7000246512
 H          2.9906719725        0.3011181309       -0.3797687779
 H          1.7801966873        1.0744765680        0.1369782259
 O          6.2709163289        1.4792739703       -4.5796789025
 H          5.4316591452        1.3945952036       -5.0524112794
 H          6.0502090077        1.6493704689       -3.6394221813
 O          1.1301861070        1.4129973892        1.6268431095
 H          0.2346199929        1.5692813459        1.2672107215
 H          1.5189656475        2.2977031690        1.8230769196
 O          3.9602256989       -4.0535787151        3.8998497809
 H          4.9292274613       -4.0676847752        3.9572066636
 H          3.7836321215       -3.3921365408        3.1925837948
 O          0.0578544121       -5.3911387217        4.1360090778
 H          0.5672534214       -4.7028010186        3.6518695188
 H         -0.0695832191       -5.0107827016        5.0095518937
 O          1.2434162400       -3.6246120948        2.5260435530
 H          2.0162760309       -4.0314889919        2.1305965314
 H          0.5242252805       -3.6474097505        1.8569251344
 O          6.2766385433       -1.2504061732       -4.1877027014
 H          6.3962490091       -0.3747731829       -4.5933064419
 H          5.9950096589       -1.0491625535       -3.2718420872
 O          8.4650828879        1.5017596209       -0.4071527996
 H          8.4626676027        2.4424965221       -0.6193976728
 H          7.5941154209        1.3608709146        0.0396858776
 O         -6.2579342472       -1.2245727393        0.4833497880
 H         -5.6560823804       -1.4556422270        1.2217452205
 H         -6.5019977756       -2.0644776933        0.0354156467
 O          5.4525164451        2.5548123674        3.6406471584
 H          4.8505485982        3.1794848902        4.0809856453
 H          4.8804169629        1.8291112315        3.3298391631
 O          5.4699992271       -4.9007304676       -3.3182813438
 H          5.0494990520       -4.3616540053       -4.0229933873
 H          4.8558312655       -5.6079242210       -3.0806399959
 O         -0.6999467193       -4.0950133387        0.7530860578
 H         -0.4167582398       -4.0542138590       -0.1811527601
 H         -0.7116201574       -5.0337500397        1.0113330961
 O         -2.4566470104       -5.4886932584       -2.1504174087
 H         -2.3523975681       -6.2062294003       -1.4893835476
 H         -1.6751072868       -4.9054452650       -1.9943895956
 O         -0.7797931414       -6.1736358710       -4.2314387795
 H         -1.5629466036       -6.1442676527       -3.6584761117
 H         -0.0639177086       -6.4539224670       -3.6433771761
 O         -3.8348531878        3.9671254408        1.9503263337
 H         -3.6299646981        4.9300233607        2.0644779849
 H         -3.1216555877        3.4732243653        2.3968383837
 O         -3.1946516596        6.4917977353        2.2624016381
 H         -2.7781415683        6.7021642847        1.4095591961
 H         -2.4942088264        6.2983849562        2.9015150640
 O         -3.3182492216        1.7219506305       -1.8618867271
 H         -2.6098409735        1.7147186124       -2.5235862059
 H         -4.1132361052        1.3938928060       -2.2936430869
 O          0.0237386986       -6.5707917164        1.5619323002
 H          0.1203325093       -6.4763305368        2.5177876221
 H          0.8860890198       -6.3891665743        1.1518151431
 O          2.2014796746        3.0296631029       -4.2408323493
 H          1.5113439104        3.6895939763       -4.1031543869
 H          1.8549599052        2.1962170373       -3.8398272554
 O          2.6743072102        1.4798489157        5.3161431177
 H          3.2377922700        1.0077441191        4.6699329977
 H          1.7838567192        1.4726982948        4.9077505697
 O         -1.5780158946        4.9230626683        3.8293052042
 H         -1.2311899783        4.5473372536        2.9879865708
 H         -0.8678859861        4.7839202503        4.4758779678
 O          1.4665142005       -0.4929796088        6.9111733985
 H          2.0548008284       -1.2111646414        6.6321947692
 H          1.9285606926        0.3129322111        6.6269807888
 O          8.7969329032        0.7810925727       -3.1592595651
 H          8.1184091861        1.1521810906       -3.7331011653
 H          8.6248745402        1.1064101910       -2.2635239277
 O          0.0751096414        6.6047135635       -1.4708227425
 H         -0.8235500980        6.5942117499       -1.0713340879
 H          0.5281326205        7.3421431126       -1.0596277260
 O          5.7065734456       -1.2801589929        4.7399950295
 H          6.0393906142       -2.1425119828        4.4508906429
 H          6.4367572570       -0.6630757806        4.6117740096
 O         -6.2058161665        3.2056528693       -3.9213251937
 H         -7.0724744104        2.9800505490       -4.3044424908
 H         -5.9520963668        2.3831728438       -3.4443540590
 O         -5.7347121863       -2.3848093899       -3.3126366922
 H         -5.2463332398       -1.8627240321       -2.6316999930
 H         -5.0755013382       -2.9938355106       -3.6729643461
 O         -1.1650644336        3.1153513216       -5.8370006810
 H         -0.7245979869        3.8991797101       -5.4984620413
 H         -2.1190349664        3.2968583503       -5.8469147410
 O          7.2930653795        3.9831901473        2.2120334391
 H          7.0301753679        4.8874285614        2.4102393165
 H          6.6301122452        3.4275725570        2.6718997227
 O         -7.5655758637        4.6602293104       -1.9796127241
 H         -6.9669657775        4.2614003708       -2.6348105564
 H         -8.2967747279        4.0292206974       -1.9077203582
 O         -3.8210129102        2.9924045404       -5.1728046840
 H         -3.7804451168        2.0236711262       -5.3191566808
 H         -4.7360329214        3.1751894381       -4.8829177703
 O          4.3102063341       -0.3322190956        0.3692280601
 H          4.8255310467       -0.6786625165       -0.3806548557
 H          4.1998591683       -1.0651439325        1.0162445657
 O          3.8662488109       -2.5250796472        1.7224209113
 H          4.6662556648       -3.0203536943        1.4488436328
 H          3.1966699098       -2.7087714978        1.0193200719
 O         -0.9421220210        0.3098257164       -6.4211796565
 H         -0.8322296686        1.2589969092       -6.5439950392
 H         -1.8989450638        0.1697447821       -6.3470378789
 O          8.4999827643       -1.3303495748       -0.5262579656
 H          8.9220195303       -0.4645899897       -0.4743931510
 H          8.6682760361       -1.6656636831       -1.4427213293
 O          6.7421901252       -1.5461162926        1.7158450263
 H          7.3743144478       -1.5491793280        0.9875601596
 H          7.0364860334       -0.8768292284        2.3473996903
 O          3.8701869403        0.1394502570       -2.9266087768
 H          3.8429771627        0.4188976520       -3.8611050978
 H          3.1562734429        0.6121714474       -2.4833046988
 O         -6.3691977892        1.5568008755       -0.2794571487
 H         -5.7585230736        1.1443622146        0.3817179964
 H         -5.9752877395        2.4500728036       -0.4303102678
 O         -6.1477862832       -4.6752290305        2.6713224345
 H         -5.7294522355       -4.3143294449        3.4609257209
 H         -5.5770363257       -5.3951650586        2.3682775514
 O         -5.9988385811       -0.8593345176       -5.6474016201
 H         -6.8336625070       -0.3942865725       -5.5697473928
 H         -5.9202522354       -1.4167587811       -4.8528035076
 O          8.3193529011       -4.0560030320        0.4085019691
 H          8.6176436643       -3.1479638562        0.2862109869
 H          8.3012915738       -4.4284794508       -0.4962630991
 O          9.2456860840        2.0089092254        2.2448766150
 H          9.2190360096        1.7496967560        1.3099534091
 H          8.7732599777        2.8551738216        2.2886842408
 O          4.6286647304        4.2055116059       -3.7468644191
 H          5.2835693987        3.6174097547       -4.1300058679
 H          3.7585866003        3.7760926565       -3.8569162031
 O          3.3845721343       -6.4825108896       -2.2630992232
 H          3.0143169585       -7.3549682588       -2.4044097322
 H          3.0478406201       -6.1852770094       -1.3891661730
 O         -3.6048896132        0.3329501514       -5.5845040127
 H         -4.4775104526       -0.0239729277       -5.8341792363
 H         -3.3804444506       -0.1512544534       -4.7656572841
 O          5.9052546964        1.9786516003       -1.9587813250
 H          6.4384370985        2.6415023239       -1.4754700652
 H          4.9883810818        2.2979625606       -1.8834367459
 O         -3.5583333047        3.4638266889        5.0836513072
 H         -2.9023004449        3.9990038690        4.5919779434
 H         -4.4219616619        3.8147454476        4.8463820103
 O         -5.7611616096        0.8336471767       -2.7832930286
 H         -6.0118234421        1.0144572001       -1.8532206715
 H         -6.4815276501        0.2917381004       -3.1520613881
 O         -8.7096559052       -1.1530332208        1.4486815582
 H         -8.8216049478       -2.1253637542        1.5484255030
 H         -7.7524875227       -1.0678315384        1.2247613083
 O         -2.9190396551       -0.1816471283        3.6255584731
 H         -2.6430331416        0.6977576138        3.2980116003
 H         -3.4260896682        0.0113282461        4.4415743239
 O         -2.0515163473        2.1983293740        2.8407077568
 H         -1.7690169539        2.0070669213        1.9270161503
 H         -1.2381982582        2.2131205128        3.3750233392
 O          3.2568965923        3.9827386347        4.5273237347
 H          2.8007200799        3.9312028219        3.6624809192
 H          3.0795005073        3.1216776996        4.9660988273
 O          5.0148266921        5.4849123975       -1.4206978850
 H          5.3107582004        6.3349736159       -1.7460753660
 H          4.7961286975        4.9541276151       -2.2204888597
 O          7.1388310071        3.9456020399       -0.5631484974
 H          7.1584877787        3.9385301353        0.4120542369
 H          6.4303290552        4.5723006951       -0.8008201515
 O         -8.6421890091        2.0603988498       -4.2591198698
 H         -8.5526129195        1.1098419807       -4.1205382087
 H         -9.1218984436        2.3939938077       -3.4909502124
 O         -3.9850325802       -6.2007063693        1.5294169701
 H         -3.3930616550       -5.6244194574        2.0452240119
 H         -4.3125070903       -5.6677012642        0.7773389733
 O         -4.5727577167       -4.6961528596       -0.6277670430
 H         -4.0146302442       -5.0773925080       -1.3234841220
 H         -4.0266825271       -3.9623554708       -0.2437274643
 O         -7.3938659271        5.0152320825        0.7866144619
 H         -7.6652741275        5.2590729705       -0.1099074406
 H         -7.9024000572        4.2055858375        0.9945565908
 O          0.4455233680       -6.9952189595       -1.8438501352
 H         -0.3405648747       -7.3576027603       -1.4256578044
 H          0.9266382304       -6.5193697694       -1.1525481290
 O         -4.2899222736       -3.4826715204        4.4756272845
 H         -3.8524249429       -2.9024695382        5.1208247794
 H         -3.5770556643       -4.0194697583        4.0709732699
 O          0.4689815203        3.9742768590        5.3449837926
 H          1.3868853996        4.2701243805        5.3294597131
 H          0.4464702153        3.1368261910        4.8482900804
 O         -3.3099500335       -3.5719694385       -4.0000220633
 H         -3.1226983950       -4.2722150805       -3.3571887564
 H         -2.6302464964       -3.6654500830       -4.6869254613
 O         -1.2059568696       -2.1766032925        3.1066747626
 H         -1.8145192632       -1.4512038215        3.3457083924
 H         -0.7306056823       -2.3979261948        3.9231985582
 O          4.2812959505       -2.9771658221       -4.7553397341
 H          3.6731810565       -2.6518950273       -4.0671254684
 H          5.0298267842       -2.3527476761       -4.7453912096
 O          8.6784920888       -1.9147884195       -3.1159111207
 H          9.0529439472       -1.0308939314       -3.2810044920
 H          7.8160767623       -1.8717742327       -3.5784269623
 O          8.0577425216       -4.5668539864       -2.2255018218
 H          8.4160442196       -3.7931686473       -2.6761483616
 H          7.2154641834       -4.7743334086       -2.6545066986
 O         -5.2255801240        3.9388673820       -0.2961191251
 H         -6.0008976161        4.4058163737        0.0977166336
 H         -4.5693092600        3.9006466258        0.4255211217
 O         -7.9716818835       -0.6211765759       -3.4585037618
 H         -8.3377910715       -0.4916526752       -2.5574818105
 H         -7.6258972486       -1.5187433254       -3.4800389101
 O          1.8119003168       -4.6336815571       -3.4251831893
 H          2.3942153778       -5.3622289027       -3.1455853079
 H          2.2156850706       -3.8173478333       -3.0873587790
 O         -6.8700306102       -3.4043473085       -0.9753331776
 H         -6.7068454158       -3.1244931693       -1.8885308230
 H         -6.1294807007       -4.0114492510       -0.7723156158
 O         -2.0563945237       -7.2026911297       -0.1155345318
 H         -1.3133309334       -7.1457654849        0.5041310097
 H         -2.8426734916       -7.0535654162        0.4497803503
 O         -0.4163173719       -2.9965427173        5.6527927114
 H         -1.2963588701       -2.8016320609        5.9986342386
 H          0.1925417357       -2.4106126430        6.1092995614
 O          7.3769023082        0.6108539880        3.4813588415
 H          8.2098479070        1.0338462821        3.1631960298
 H          6.8498559291        1.3310449687        3.8616385558
 O         -4.4165153139        0.7733367200        5.6014562950
 H         -4.0373789307        1.6638495558        5.6070839007
 H         -5.2136754242        0.8528813249        5.0474740141
 O          5.6839372643       -4.2146953562        0.7704568146
 H          6.6615576152       -4.2111028722        0.7087530952
 H          5.3576501311       -3.9103317135       -0.1066525588
 O          6.6373725996       -3.5705770305        3.4763309647
 H          7.2611804664       -4.2614380562        3.2522677150
 H          6.6296152980       -2.9600181945        2.7039310303
 O         -0.0055724411        4.5692379569       -3.4232811966
 H          0.2247801391        5.3347189220       -2.8787759104
 H         -0.9837534433        4.5880821748       -3.4572137807
 O         -4.5840970234        5.8549057527       -2.0231251354
 H         -4.8024578763        5.1033626029       -1.4169724082
 H         -5.4205269644        6.0906379427       -2.4265746526
 O          1.1954238846        0.7275164032       -3.3903323925
 H          1.3593158966        0.1175935787       -4.1371452207
 H          0.2398854078        0.9304250496       -3.4506382560
 O         -2.3974926797        6.4749387569       -0.3702853606
 H         -3.1513025001        6.6857337267       -0.9366267907
 H         -2.4050774892        5.4939100765       -0.3326889691
 O          0.1397087607        2.5573927745       -1.5294586426
 H          0.7645600704        1.8542766486       -1.7495765546
 H         -0.0045010246        3.0967852944       -2.3258283345
 O          4.9386113405        5.5650509192        2.5741220640
 H          4.4421193321        5.3237991756        3.3625216442
 H          4.8926338596        4.7911607240        1.9763285830
 O          0.4369150434       -1.2295297981        1.2319056454
 H          0.7899582207       -0.3768711408        1.5156585468
 H         -0.2061706109       -1.5151827413        1.9142841945
 O         -1.2915770459        1.3194510286        0.3554624083
 H         -1.4961383447        0.4657635700       -0.0644708197
 H         -1.0882936763        1.8877941574       -0.4078184663
 O         -0.6828125799       -0.9302695781       -1.0793571484
 H         -0.3832581100       -1.1820952649       -0.1876554716
 H          0.0902244668       -0.5766635324       -1.5238327798
