  91
       -152.91620417
 H         -0.7915208604       -0.6396642334        0.3175444344
 O         -1.8265776763       -0.5650234494        0.3130999254
 H         -2.1249782731       -1.2769503175        0.9887829047
 H         -2.1636109552        0.3343222486        0.6391010780
 O          1.5661667250        3.3632302106       -2.0486423636
 H          1.8891703753        4.1935503496       -2.4038718241
 H          2.3157087100        2.7297187753       -2.1077596048
 O         -0.1062784328        1.3277599501        2.0479676828
 H          0.0576377008        1.3498004619        1.0866040350
 H         -0.6341268657        2.1203840405        2.2399623113
 O         -2.2447136177       -2.1855043591        2.2274884520
 H         -1.6500460310       -1.7874090580        2.8862770971
 H         -1.8290005641       -3.0221231039        1.9601461276
 O          3.5986187996        1.6079573180       -2.1025427579
 H          3.3850396852        0.6991665875       -2.4704188067
 H          4.4878264383        1.8152498188       -2.3907697722
 O          0.6210969301       -1.0129690665        0.4935461199
 H          1.3000122093       -0.3348645665        0.3444160761
 H          0.8925391702       -1.8387382732        0.0505624342
 O          1.9000931517        1.9512572084        3.7839998566
 H          1.1272801821        1.7053473710        3.2422542554
 H          2.2705007890        1.1090849055        4.0925005329
 O          1.2417736089       -2.9770433093        2.6340887000
 H          1.9950238992       -2.5413396174        2.2017513845
 H          0.7102227100       -2.2430187192        3.0003265987
 O         -2.5042171200        2.3060756712       -1.5160765226
 H         -2.1042516647        2.8807620077       -2.2016576479
 H         -2.9743068528        1.6028874845       -2.0110344015
 O         -0.1379310459        1.4448795826       -0.7027103300
 H         -1.0418085822        1.7644818128       -0.9506296634
 H          0.4761599807        2.1155151852       -1.0192594284
 O         -4.6141706924       -0.6645611880        1.2703562607
 H         -4.1971381173       -1.2494171730        1.9096724690
 H         -4.2836029931        0.2282472410        1.4266583583
 O         -3.6475728352        0.3421237615       -2.9439173437
 H         -3.8234527055       -0.4159329802       -2.2963161588
 H         -4.4978777286        0.5368923418       -3.3401150218
 O         -1.4183546537        0.6148344000       -4.3999401083
 H         -2.2567111260        0.4696297945       -3.9035615134
 H         -1.5980484848        0.4069324755       -5.3172793122
 O         -2.9619061702        1.6346904023        1.0279090311
 H         -3.0787921282        2.0014853906        0.1341804412
 H         -2.5465617588        2.3538208022        1.5319321694
 O          2.6258968442        0.8554847877        0.3559415782
 H          2.7103785154        1.6673459178        0.8865595662
 H          3.0437664157        1.0635724664       -0.4953179987
 O          3.7209570164       -2.5679311767       -0.7717740866
 H          2.8527162652       -3.0107475464       -0.6883284159
 H          4.3456957089       -3.2285121847       -1.0732526517
 O         -0.2315627289       -0.8956745489        3.5655414482
 H         -0.1855520539       -0.1332426484        2.9548869193
 H          0.4280618299       -0.7201351772        4.2465123769
 O          1.1936567343       -3.4444432999       -0.6061298462
 H          0.7196007440       -3.4376140579       -1.4593255475
 H          0.6445642665       -3.9478586611        0.0143077939
 O          0.6994344139        4.2120676768        0.5730391212
 H          1.5014994769        3.9181911119        1.0413991642
 H          0.8751942224        4.0832136808       -0.3658107105
 O          2.5339852713       -0.6727966458        4.3052270994
 H          3.0464852194       -1.0823006439        5.0027292003
 H          2.9035175249       -0.9904679163        3.4643368915
 O          2.9527103240       -0.7960111174       -2.7843095376
 H          1.9787275583       -0.7579221080       -2.7364441937
 H          3.2529393150       -1.3882265362       -2.0727658422
 O          3.3576535559       -1.3882639956        1.7313079209
 H          3.7581922486       -1.8889633825        1.0071399831
 H          3.1263224987       -0.5298606618        1.3284981091
 O         -0.5760122821       -4.3189411697        1.3914524772
 H         -0.6624377560       -5.1797823238        1.8021128756
 H          0.1453153335       -3.8376345703        1.8969867758
 O         -4.2183077757       -1.5285283704       -1.2938489253
 H         -3.4956532124       -2.1496619927       -1.1076767310
 H         -4.5102240833       -1.2060230535       -0.4213459688
 O          0.2602753926       -0.4570010956       -2.5674140781
 H         -0.2477089712       -0.0579266064       -3.2957107594
 H          0.1097348515        0.1284838967       -1.7929724909
 O         -2.0590445522       -3.1061366154       -0.7155963185
 H         -1.6987613319       -3.7334119798       -0.0814553741
 H         -1.5588922001       -3.2058061031       -1.5354043559
 O         -0.2566068437       -3.0465363927       -2.8219440612
 H         -0.1215015872       -2.0722592563       -2.7511027974
 H         -0.1592819424       -3.2852671101       -3.7437604430
 O         -0.9172117370        3.2030924096       -3.4522363473
 H         -0.9764679630        2.3781295048       -3.9579206379
 H         -0.0254338666        3.2442403427       -3.0826934816
 O         -1.4459254772        3.6668308739        2.0587561907
 H         -0.7383951485        3.9793055066        1.4501036715
 H         -1.6063440009        4.3753023786        2.6822380229
 O          2.9544979209        3.1751776204        1.7551543388
 H          3.7257481407        3.7004914043        1.9683479915
 H          2.6251374399        2.7898634499        2.6145325854
