  459
       -779.20518001
 O         -2.4995357443       -0.4824073504       -1.2985619961
 H         -2.3316631142       -0.3506200032       -2.2489553947
 H         -2.2359835967       -1.3869812401       -1.0659380378
 O          6.0121563558       -0.6270090373        5.0617317828
 H          5.9587730618       -0.1108974166        5.8691867326
 H          6.8660885023       -1.1183064054        5.0255817635
 O          2.6980130036        2.9543440115        0.0759834924
 H          2.4601279834        3.0821790753        1.0178035911
 H          1.9411858709        2.4558304874       -0.2775256706
 O          1.9113495184        1.4426143677        7.0365697164
 H          2.1290929412        0.4999610660        6.9715776195
 H          0.9940550122        1.4362804974        7.3803928426
 O          2.9798848711       -0.1407811291       -3.0127540678
 H          3.3867083376        0.7415536696       -2.8913357773
 H          2.0270351893        0.0388371181       -3.0622966841
 O         -5.0110878490       -6.1975892614       -0.6396632780
 H         -4.1140635577       -5.8851111176       -0.4328864568
 H         -5.4890720759       -6.2007276663        0.2027185311
 O          4.5132804109        1.5927856063        5.9013489690
 H          3.7055578130        1.6935942309        6.4200019405
 H          4.6089836672        2.4049339536        5.3842772073
 O          3.2553023364       -4.4107236252        1.5803449024
 H          2.7782157461       -3.6999702643        2.0690050123
 H          3.6606433655       -4.9800254637        2.2606938283
 O          1.9840666294        5.4912159869       -4.2535161343
 H          1.5510078696        6.2103574666       -3.7737307323
 H          2.9292671839        5.5605457905       -4.0338504603
 O         -0.2849344274        3.9167693518       -4.8467954365
 H         -0.7491474245        4.3066437425       -4.0903244298
 H          0.4892305664        4.4656963695       -4.9962825101
 O         -1.4087390076        4.9814464517       -2.5451705208
 H         -0.7048678764        5.6352719283       -2.3983576574
 H         -1.7693397853        4.7791184120       -1.6493821626
 O          3.3024421498        2.8907193694       -5.3675008788
 H          2.5882402123        2.2764222535       -5.6637662459
 H          2.9199430808        3.7702761688       -5.3913580088
 O         -2.1801097154        4.0862581433       -0.1436357869
 H         -2.2677962449        3.1232599929       -0.0549487184
 H         -3.0226600645        4.4332179572        0.1829627369
 O          0.5426096883        4.7189947402        0.0120380232
 H          0.1681371198        4.0898712340        0.6545693119
 H         -0.1414299385        5.4080074626       -0.0942655284
 O          0.6916093077       -5.5812061927        3.7449533650
 H          1.5515969792       -5.4263788963        4.1975651226
 H          0.0171291702       -5.5283504408        4.4248302243
 O         -4.6247405607        4.1102518677        1.0922586370
 H         -4.9420220748        3.2839742763        0.6820734580
 H         -5.3805776105        4.7251117596        1.0167604533
 O         -4.6563243176       -0.9454419168       -3.2533412406
 H         -3.8100430865       -0.6919129670       -3.6459110817
 H         -5.2220913858       -1.2643683079       -3.9776252735
 O         -1.5403853212        2.1672706659       -2.2570230412
 H         -1.4670884706        3.1087538193       -2.4604747442
 H         -2.4816750329        1.9370173288       -2.3488826229
 O         -4.7649110133        4.1963891423       -1.7729475419
 H         -4.4613777433        3.3000113991       -2.0305598946
 H         -5.7243323135        4.1223902238       -1.6363431533
 O         -1.4171152366       -3.0830209427       -2.7960973933
 H         -0.8739128404       -3.8716196570       -2.9648055209
 H         -0.7996594546       -2.3422065998       -2.9561998492
 O         -1.8257817809       -2.9013101384       -0.1367288561
 H         -2.2678976900       -3.7605417382       -0.0140958893
 H         -0.9269097564       -3.1351563290       -0.4102918427
 O          1.2675808823        3.6074513807       -2.3445666326
 H          1.3939263094        4.3260149547       -2.9850192720
 H          0.9438565971        4.0035931205       -1.5072411516
 O          7.4199576106       -1.5155453532        1.9248138622
 H          7.4479541503       -0.6378766200        1.5038706848
 H          7.9738979433       -2.1332173305        1.4137903347
 O         -4.4031110113        1.0042729916        2.5979003820
 H         -3.5812790256        0.9520590593        3.1168649063
 H         -4.1189503356        1.2994726272        1.7179208826
 O          4.3873201345       -4.8872247301       -1.2341491614
 H          4.1689719277       -4.0250247089       -0.8391097152
 H          5.2356546161       -4.7680355430       -1.7099264259
 O         -3.5750944171       -0.7558603286       -6.3228690344
 H         -2.8773058553       -0.4255665876       -6.8950385635
 H         -3.1785984656       -1.4957057046       -5.8133636391
 O          2.2606142208       -3.0173016617       -2.4452110906
 H          2.8333063444       -2.6521571543       -1.7453540051
 H          2.8177721052       -3.5875384467       -2.9975595245
 O         -4.1441275539        1.7910923138       -2.7298247885
 H         -4.1980365084        1.7188102256       -3.7016548883
 H         -4.9445309015        1.3134027328       -2.4363630285
 O          5.1634246118       -0.0263278606       -0.9459254994
 H          5.3149225441        0.5118226338       -1.7430347761
 H          4.9705543563        0.5604159806       -0.1835655493
 O         -7.9021024343       -0.2823664785        1.1652622503
 H         -8.4872864000       -0.9880286685        0.8376724872
 H         -8.0145263703        0.4565973289        0.5418422913
 O          5.1289260154       -1.9328391378       -3.2284677551
 H          5.5265879322       -2.0744639850       -2.3540472445
 H          4.4267196808       -1.2702031314       -3.1084895960
 O          2.2823284399        2.5909453678        2.6116370581
 H          3.0961872460        2.7620467350        3.1193038625
 H          1.5317134835        2.8018357287        3.1761316033
 O         -0.7787518058        0.1445823978       -7.2595155113
 H          0.0806606698        0.5654168931       -7.0703480790
 H         -0.6548741357       -0.7771769999       -6.9776489661
 O          3.0234204103       -5.1225023991        4.9360834146
 H          3.6663734975       -5.6348258186        4.4266563151
 H          3.3813856272       -4.2283382429        5.0158806270
 O         -9.6530012580       -2.4989544164        3.0295312105
 H         -9.6563311447       -2.4602136686        2.0684386768
 H         -8.7604896699       -2.7977923964        3.2952261958
 O         -2.3701792109       -5.5530593990       -0.0609030266
 H         -1.6753274537       -5.9568938250        0.5055766688
 H         -2.1220031629       -5.8042786893       -0.9667674637
 O          0.1546333499       -2.7876816625        5.0565219060
 H         -0.5607361542       -3.3510145354        4.7384608427
 H          0.7871095567       -2.7077919472        4.3170959357
 O         -0.4730402448       -1.2089894701        2.7332245152
 H         -0.2699195340       -2.1230089212        2.4574838382
 H         -1.3707696005       -1.0136641459        2.4323506263
 O          3.7816986515        0.3630190545        3.5564598163
 H          2.8199845187        0.2779685651        3.6815500823
 H          4.1339350816        0.6698926747        4.4103012145
 O          1.9650144533       -3.6879705862       -5.5212737973
 H          2.7429319169       -4.1750975374       -5.2171197845
 H          2.2831006112       -2.7683347513       -5.5996648008
 O         -5.9591752303        1.9514363260        0.1855934174
 H         -6.6971427020        2.2690046663        0.7408337037
 H         -6.3397673342        1.7903124770       -0.6968648398
 O          4.6600446057       -1.7376392977        2.0940699127
 H          4.3289769695       -0.9688541199        2.5865947969
 H          5.6241877691       -1.6560938371        2.0810582452
 O          0.3320333113       -4.9627345055       -3.6651581718
 H          1.0471204501       -5.4041763232       -3.1565083926
 H          0.7893659751       -4.5180188376       -4.3985993274
 O         -1.7994585623        1.0775035725        3.4566255684
 H         -1.2108879561        1.8292270938        3.5652643451
 H         -1.6659120586        0.4871122438        4.2220489305
 O         -6.9308661434        5.3954038367        0.6398029444
 H         -7.3972905004        4.7408298367        1.1849643094
 H         -7.1562631492        5.1424932797       -0.2667115836
 O          1.1819676169        0.1370566795        4.3224543153
 H          0.5010891379       -0.3421548335        3.8116225369
 H          0.8852636952        1.0498757840        4.4592372904
 O         -5.7338971700       -1.3766217814        2.1913760637
 H         -6.4604721745       -1.0167949704        1.6472133394
 H         -5.2295788030       -0.5948644453        2.4791779965
 O          4.9924084746        0.5740950436       -5.9078892158
 H          4.5274021341        1.3839578824       -6.1394636668
 H          5.1951497197        0.6795052031       -4.9541374565
 O          4.5645643451        3.4536878508        3.8422407894
 H          3.9524760177        4.1453735658        4.1826221289
 H          4.9667354098        3.8281752405        3.0291689619
 O          4.5595579744        5.3610488870       -3.3514940720
 H          5.1779662044        5.8770881227       -2.8061717571
 H          5.0810006533        4.5899464446       -3.6454411249
 O          5.9392683252       -3.9189451814        1.0294484370
 H          4.9701183598       -4.0290806199        1.0686275978
 H          6.2063476419       -3.7730172487        1.9550947309
 O         -7.2831897382        0.2677520288       -5.8698652626
 H         -7.0747325948       -0.6614641089       -5.7068188827
 H         -6.4319755878        0.7368125318       -5.7743607514
 O         -3.8181999005        3.6533769002       -6.1970885671
 H         -2.9537369902        3.2162270003       -6.1453608530
 H         -3.8127191715        4.3142245516       -5.4736779864
 O         -2.8798445463        3.6996682319        2.9931776055
 H         -3.5817387844        3.8495165137        2.3208074900
 H         -3.2082458399        3.0354469453        3.6197466555
 O         -3.8473092438        6.4832343649       -0.5518048514
 H         -4.6242568813        6.7725419180       -0.0730696094
 H         -4.1180851677        5.6834314728       -1.0362474418
 O          0.5853732460       -4.0963884346       -0.6665075455
 H          0.6655525344       -5.0496460215       -0.7325522658
 H          1.1778959879       -3.7212154682       -1.3496796741
 O          1.9229906614        6.0155199846        1.9906079724
 H          1.6566806721        5.4928980025        1.2073303974
 H          1.0903272078        6.3990704290        2.3002536265
 O          4.6955033010        1.4577345895        1.1783962910
 H          4.0197121085        2.0383319569        0.7823740173
 H          4.3211111180        1.0983899970        2.0036970908
 O         -2.5773289219        1.4779658600        0.5915815847
 H         -2.5103444445        0.8343754650       -0.1364951987
 H         -2.1358822321        1.0850244175        1.3540870794
 O         -8.5510147487        1.6339147083       -4.0458059806
 H         -8.2065218075        1.0570528670       -4.7741637909
 H         -8.2805962501        2.5252765162       -4.2901334201
 O          2.1589276882       -6.5297217323        0.4360145711
 H          2.4864582208       -5.6623351032        0.7847255556
 H          2.8695947708       -7.1480483468        0.6232371021
 O         -7.5120289276        0.2504288329        3.9801030726
 H         -6.9044294530       -0.3850373520        4.4110119882
 H         -7.5655993448        0.0086255722        3.0405610761
 O          3.8906171631       -2.3106927497       -0.4239998412
 H          4.1903294492       -1.4357730667       -0.7265280753
 H          3.9704716126       -2.2392502265        0.5493576488
 O          5.7999753296        0.9875047803       -3.3698548007
 H          6.6006324636        0.4679946813       -3.5355474528
 H          6.0409011441        1.9269349273       -3.4768099822
 O         -0.0643998179       -3.7315445490        1.9611147410
 H          0.4321419351       -4.3441574610        2.5341695215
 H          0.2708902308       -3.8482359545        1.0599240080
 O          4.7939834223       -6.0878355669        3.0521473152
 H          4.9844254588       -6.4958833276        2.1827796864
 H          5.5474077803       -5.5239850955        3.2773108331
 O          9.4602866038        3.5564643024       -0.7557973497
 H          9.0522038323        3.7099851590        0.1260514960
 H         10.3027582663        3.1001082587       -0.5791928813
 O         -1.5923426210        3.5565839724        5.9820931296
 H         -1.7493432630        4.4865207564        5.7700276187
 H         -2.4180652387        3.0985680466        5.7181882584
 O          7.7182196616       -5.5389925748       -0.1028215874
 H          8.5047668679       -5.0130822211        0.0831669023
 H          7.0060781315       -5.0345601377        0.3503298969
 O          7.3371452722        0.9762294282        0.8569140050
 H          7.3636212421        1.2094763777       -0.1005658111
 H          6.4448114592        1.1970983203        1.1879869597
 O         -4.6377325338       -3.4296858521        0.7202815502
 H         -4.5134332952       -3.2853845270       -0.2371898821
 H         -4.9341714369       -2.5953106299        1.1203777654
 O         -4.8730115914        1.4338427131       -5.3042408583
 H         -4.5288974405        2.2347065154       -5.7744383847
 H         -4.3636199476        0.6769797137       -5.6523171470
 O         -0.4168704406        3.1059387456        1.9764058600
 H         -0.2813548914        2.3855323438        1.3399118731
 H         -1.3766285558        3.2262366278        2.0901673595
 O         -6.5749695393        3.5562757041       -4.2887725311
 H         -6.0450193204        2.7757224112       -4.5024306594
 H         -6.0635768926        4.3112094429       -4.5897423434
 O         -0.3454801763       -2.3419926101       -6.1832356796
 H          0.2768117945       -3.0584472422       -6.3418903286
 H         -1.2012349220       -2.7355519363       -5.9296618535
 O         -2.0299554047       -0.2454240706       -3.9155737984
 H         -1.1177085077       -0.5563879049       -3.9546052265
 H         -2.0604253895        0.5778162418       -4.4505368240
 O          0.6207735818        1.3005668728       -3.5232532583
 H         -0.3160400119        1.3530153413       -3.2648937635
 H          0.9629719939        2.1493517830       -3.1907725134
 O          6.2756637334       -3.8506443423        3.7256838063
 H          5.4894472922       -3.3918469682        4.0542136965
 H          7.0322799962       -3.3810481510        4.0980340134
 O          5.0962960587       -6.8622326764        0.4746784286
 H          4.7778997205       -6.1413327146       -0.1143758786
 H          6.0270100282       -6.9661337563        0.2622883740
 O          2.2191581436       -6.1735817674       -2.2359037962
 H          2.0904745993       -6.4965671120       -1.3270956393
 H          3.0554436355       -5.6812416845       -2.1696151491
 O         -1.8625555179        1.8587423502       -5.5066708668
 H         -1.5152506944        1.3215551786       -6.2458941646
 H         -1.1775328785        2.5125510914       -5.2843447693
 O          0.7525027610        2.7956710563        4.9509417948
 H         -0.1054048339        3.1015963257        5.3155465000
 H          1.2601938899        2.4644358284        5.7179416971
 O          8.2036839420       -1.9378067521        4.4392954048
 H          8.9519536153       -1.3890905213        4.7294266354
 H          8.0221511842       -1.6916295035        3.5048917780
 O          4.1910570213       -4.3015495509       -4.0537210210
 H          4.6088535072       -3.4313213682       -3.8878477294
 H          4.8761809562       -4.9510552142       -3.8872784096
 O         -8.7483396459       -4.6789493144        0.3654031854
 H         -9.0798310572       -3.7609607099        0.3646502733
 H         -9.4741173712       -5.2323054227        0.6532106815
 O          8.1859537051        3.5388344655        1.6049914370
 H          7.9001418676        2.6131442366        1.5088619088
 H          7.3493891801        4.0337209760        1.6641354631
 O          8.7476986216       -0.7708218294       -2.0209503258
 H          8.5863922663       -0.9408266655       -2.9584816226
 H          8.0919443868       -1.3255029831       -1.5492438278
 O          2.9418085289       -1.1191719472       -5.5209207061
 H          2.9299545604       -0.8789872343       -4.5693265662
 H          3.7640207155       -0.7143027112       -5.8566628002
 O          4.3708703028        6.5899423790        0.8495300636
 H          3.6894504711        6.7157950543        1.5226330000
 H          3.8615392058        6.2335132557        0.0834972757
 O         -7.0797019112       -3.2925161606        3.5196196995
 H         -6.8606818839       -4.1201498922        3.0631543113
 H         -6.5602440138       -2.6047767945        3.0540844672
 O         -0.3990230013       -6.6723128568        1.3536759963
 H          0.4972193374       -6.7332251707        0.9830298198
 H         -0.2607842647       -6.4309421122        2.2776929429
 O          9.1355854098        2.0737812410        3.8205869853
 H          8.1762582657        1.8330947341        3.7451822109
 H          9.1947737599        2.9260556814        3.3731344887
 O        -11.4521619276       -0.1835757032        0.1291315312
 H        -11.3137650045        0.1404712697       -0.7710767988
 H        -11.1078016049        0.4994386872        0.7306952900
 O          7.7800306907        1.7232850921       -1.6136934320
 H          8.4706717259        2.3941168157       -1.4023111876
 H          8.2380429312        0.8970174273       -1.8574649763
 O         -1.1480112696        6.8477641105       -0.0185153333
 H         -1.1183942837        6.7825127549        0.9492826636
 H         -2.0846971402        6.7540011358       -0.2624087809
 O         -7.8155941375        3.0877036716        1.8556314499
 H         -8.6395822523        2.6122844701        2.0230469832
 H         -7.2581905133        2.9993167309        2.6621706617
 O        -10.1843259136        0.0460245118        3.7787285183
 H         -9.2873289651        0.1999819668        4.1255779036
 H        -10.1757798342       -0.9018532929        3.5288636074
 O          6.7258214135       -2.1447492144       -0.9025783608
 H          6.4934835924       -2.7465470454       -0.1636424856
 H          6.2301352623       -1.3146710067       -0.7302912126
 O         -3.7100215551       -5.8797444398        2.5455329501
 H         -3.3730989772       -5.7210238966        1.6550401796
 H         -4.6618578490       -5.7414798936        2.5014669603
 O         -4.0885523597        0.1533985666        6.6800360837
 H         -3.2557475230       -0.3233753447        6.5953365010
 H         -4.7805756005       -0.4154399724        6.3093245718
 O          1.4447361757        1.0806863534       -6.0110300691
 H          1.0241448531        1.1603537232       -5.1202953424
 H          1.9331503873        0.2334116488       -5.9760020591
 O          7.3662854050       -1.0100789360       -4.4067902259
 H          6.5557207668       -1.4617449607       -4.0855978910
 H          7.2150238563       -0.8334696670       -5.3363608535
 O          2.1518822557       -2.5059090812        3.0645415846
 H          2.9161699771       -2.4222739564        3.6653910404
 H          2.1723212441       -1.7174562753        2.4894230567
 O          8.2582565040        4.9493542615       -2.7903748839
 H          8.8241686608        4.5022396543       -2.1400127545
 H          7.6800536335        5.5271031958       -2.2665897868
 O          3.6365368205        2.4594313311       -2.7063858509
 H          3.6805361115        2.6457793549       -3.6643951754
 H          2.7944412253        2.8577383943       -2.4042335561
 O         -3.4215362538       -1.9924529051        4.0487013892
 H         -3.0101686857       -2.8841100277        4.0343544407
 H         -3.3345403085       -1.6682274870        3.1229090102
 O          5.6009748616        4.3504897003        1.5451513856
 H          5.1951686578        5.2276829593        1.3569806672
 H          5.4239872345        3.8002695305        0.7631158677
 O         -2.8823966512       -1.2010897270        1.5853153129
 H         -2.5091291260       -1.9258107895        1.0463287651
 H         -3.6561863515       -0.8918183451        1.0751460879
 O         10.1105132166       -0.1200389599        5.1288534348
 H          9.7780895411        0.7352368123        4.8088108944
 H         11.0590885086       -0.1113707502        5.0034547232
 O         -4.2778806456       -6.7672687397       -3.3020221745
 H         -3.3303933231       -6.6820879853       -3.1206759311
 H         -4.7065670990       -6.7449686656       -2.4359220335
 O          6.7679877172       -4.5479578633       -2.4042644096
 H          6.9678223150       -3.6364482561       -2.1554853108
 H          7.2293429369       -5.0872163321       -1.7280277830
 O         11.4538872818        1.8794731656       -0.0552150138
 H         11.8802484057        1.1811972451       -0.5532168147
 H         10.9503992562        1.4391829534        0.6610882231
 O          5.5584454402        3.3094056142       -1.0115922785
 H          6.3251061630        2.7934109129       -1.2937281727
 H          4.8200265243        3.0206744400       -1.5865199863
 O         -1.5685438925       -6.5020073960       -2.5358910893
 H         -0.9556181493       -5.9704556212       -3.0785966456
 H         -1.1678546066       -7.3663708007       -2.4386587464
 O         -0.7212773759        6.0646086181        2.6062803244
 H         -0.6673995626        5.1081674756        2.4786147443
 H         -1.2936849042        6.1900536356        3.3779926490
 O         -4.8616577173       -4.3232689354       -4.2480154531
 H         -4.7757140938       -3.9557761150       -3.3425574437
 H         -4.7784990110       -5.2872291208       -4.1131767867
 O         -6.6361550047        0.9398913047       -2.2347304452
 H         -7.3419109831        1.1815289863       -2.8626052113
 H         -6.6183299615       -0.0266721863       -2.1801201662
 O         -5.7867055312       -1.4726312295        5.1891842164
 H         -6.3315923722       -2.2637799875        5.1020228896
 H         -4.9639101785       -1.6738634332        4.6913671899
 O          6.2070623345        5.9298330066       -1.2799407125
 H          5.9842188437        4.9911481595       -1.0890360953
 H          5.8897922369        6.4425095132       -0.5305800691
 O         -4.0994712926       -3.1419122993       -1.9272857874
 H         -3.1404850873       -3.2140217896       -2.0344876076
 H         -4.3481079267       -2.2654831142       -2.3107763590
 O         -8.7570686255        1.7166621871       -0.5211813054
 H         -9.3628071523        1.9778644541        0.1814635812
 H         -9.2971057464        1.2587202964       -1.2023733042
 O        -10.2737120554        0.4838114871       -2.3386048580
 H         -9.8951134604        0.9829724389       -3.0824186926
 H         -9.9522883783       -0.4264138989       -2.4664619160
 O         -6.7326109451       -1.7406167865       -1.4766775101
 H         -6.5557725246       -2.6967602952       -1.5795165470
 H         -6.0511258921       -1.3807671523       -0.8719379552
 O         -7.4752308857        3.9028747885       -1.6695874005
 H         -7.3688536946        3.7536497575       -2.6212966468
 H         -7.9350888420        3.1252461068       -1.3039133891
 O         -2.0169004004       -4.2227749254        3.7700272915
 H         -1.4862180740       -4.0371161541        2.9734671394
 H         -2.6578435491       -4.9048781743        3.4846555143
 O          9.8700572900        0.5816614835        1.7071204973
 H          8.9765226318        0.6983874851        1.3384467018
 H          9.8125069332        1.0456867397        2.5667779644
 O         -9.6677599521       -2.1180350541        0.1633564853
 H        -10.4482749729       -1.5146518712        0.2447266504
 H         -9.4884261556       -2.1365058750       -0.7970384729
 O          0.7737603194        6.6786973086       -2.0703641758
 H          1.5189383755        6.2752285033       -1.5825946031
 H          0.2389513753        7.1306375329       -1.4060960587
 O         -1.5891545646       -0.7222756314        5.4688241020
 H         -2.3213486301       -1.1828562836        4.9917219151
 H         -0.8455730492       -1.3537026977        5.3986774825
 O         -6.7968290379       -4.3947219589       -1.6992699987
 H         -7.5265211913       -4.6114512526       -1.1077176703
 H         -6.0639871615       -4.9845356765       -1.4489875099
 O         -6.1834210772        2.5325147530        3.8619597959
 H         -6.7512395985        1.7898694318        4.1522413753
 H         -5.5228194279        2.0795180976        3.2905218766
 O         -0.7392937714        1.2273257444        7.3689409352
 H         -1.1574629730        2.0599049859        7.1195670490
 H         -1.0730247333        0.5524373916        6.7607069372
 O          9.2073756714       -3.3257781909        0.8993381570
 H          9.6487411253       -3.6129406939        1.6992152248
 H          9.8175990081       -2.6839435633        0.4585642200
 O          4.0566213494       -2.4571812517        4.9826532481
 H          4.7245253778       -1.7438888589        4.9199216115
 H          3.3965289611       -2.1015849146        5.6177082809
 O         -3.8284820399        2.3295577354        5.1975649455
 H         -3.9105413591        1.5324868206        5.7708109644
 H         -4.7399085136        2.6064313991        5.0122319094
 O          6.6052552924        1.4645010793        3.4341295615
 H          6.3105821711        0.6714231703        3.9163560120
 H          5.9468790680        2.1465632918        3.6064655188
 O         10.6465714576       -1.3545039184       -0.1060363526
 H         10.4690297844       -0.7048143019        0.5932817512
 H         10.1136430166       -1.0863159452       -0.8732467710
 O          2.5127201894        4.9900868884        4.4655269762
 H          1.8023758534        4.3627955257        4.6685532020
 H          2.3111432995        5.3684633089        3.5890422040
 O          3.0242511171        5.3822807358       -1.0802643086
 H          3.5590701543        5.2500855986       -1.8816693331
 H          2.8903779836        4.4981576702       -0.6724015576
 O         -4.8407454422       -0.4733533309       -0.1247388136
 H         -4.1473535464       -0.3879666144       -0.8090805327
 H         -5.2162583720        0.4116633215        0.0320029314
 O          6.4524043296        3.5177617790       -4.0143948099
 H          7.1834888567        4.0046674542       -3.5398969625
 H          6.6544108024        3.5655806161       -4.9481803499
 O         -9.0988751238       -1.9670895866       -2.4928996862
 H         -8.1769402544       -1.7936782873       -2.1848536501
 H         -9.0316205928       -2.6828939888       -3.1248623701
 O         -2.7135844001       -3.0085587900       -5.1116490061
 H         -2.2982337496       -2.9543982942       -4.2210762493
 H         -3.4932910573       -3.5866701185       -4.9739535915
 O         -6.3308660307       -5.1869434311        1.6337970660
 H         -7.1876910178       -5.0630311489        1.1979060447
 H         -5.7299602783       -4.4873879763        1.2589342880
 O          2.0897432380       -1.2889809397        6.3561453519
 H          1.7573275842       -0.7849590286        5.5752361358
 H          1.4281802552       -1.9739656741        6.4933077758
 O        -10.3470307580        1.7321944581        1.8391538971
 H        -11.0445891844        2.3219760665        2.1250454634
 H        -10.2643190132        1.0430682258        2.5765760122
 O         -2.5800402448        5.7663945171        4.5886247930
 H         -2.7626237096        5.0048456084        3.9763692371
 H         -3.4069965675        6.2314294058        4.7066184016
 O          0.4705610963       -1.4609703512       -3.7284285543
 H          0.3947532794       -1.7512943202       -4.6559027736
 H          1.1856658441       -1.9869864365       -3.3225286778
 O         -3.7880353764        5.2577185171       -4.0294599053
 H         -4.2711312643        4.9338049746       -3.2427005639
 H         -2.8867789042        5.3785501155       -3.7007768294
 O         -5.9414616630       -2.0920646490       -5.3617374232
 H         -5.2540137880       -1.8431187287       -5.9925583330
 H         -5.7404809647       -2.9984642195       -5.0676467599
 O          0.3225806375        1.5954858708       -0.2874210569
 H         -0.3095219321        1.9364918769       -0.9434678998
 H          0.4113110908        0.6528165417       -0.5323175524
 O          1.9582325790       -0.3715511464        1.3521009952
 H          1.0576568797       -0.2798778514        1.6887230090
 H          2.3216429559        0.5144103683        1.2828690521
 O          0.3448609926       -1.0561959748       -0.7343751045
 H          1.1646629803       -1.3721770646       -0.3453040188
 H         -0.3759659255       -1.3146522364       -0.1566476523
