  311
       -524.05528545
 H          0.4609628956       -0.9021438827       -0.3666019703
 C          0.8578678887        0.1027014470       -0.5271239874
 H          1.9380355911        0.0594061348       -0.4155160677
 C          0.2861524574        1.0508166525        0.5270325695
 H          0.4902656174        2.0797059904        0.2392984718
 H          0.7813070060        0.8432823878        1.4721271568
 N         -1.1504083630        0.9036848575        0.7425445024
 H         -1.6434838993        1.0183107681       -0.1326840968
 H         -1.3323760696       -0.0294525719        1.0936580146
 O          0.6039302129        0.4921210194       -1.8684462551
 H         -0.2831813740        0.8973286601       -1.9401466542
 O          3.7614163654        0.8971459088        0.8245824389
 H          3.4608620400        0.6474147206        1.7132609771
 H          4.5622304325        1.4502249812        0.9435563917
 O         -8.9348995158        0.1773748497        2.4461859100
 H         -8.4816684918        0.0268997011        3.2803236663
 H         -9.1772362199       -0.7038276962        2.1003521699
 O          3.5527619770       -2.1666123930        4.0192144872
 H          3.3640245584       -3.0013310174        3.5468580393
 H          2.7132956307       -1.9034177528        4.4241797280
 O          0.5341633234       -4.0761589119        4.0933306220
 H         -0.3903851889       -4.0470590197        3.8123737956
 H          0.7254221105       -3.2060275198        4.4806922370
 O          5.2164864349       -1.4658254541       -5.3082947236
 H          5.5453586126       -0.5575223093       -5.3680048288
 H          5.5211907053       -1.7720788590       -4.4318853420
 O         -1.4737587271        5.3711509894       -3.5096105831
 H         -1.9053661678        5.5943897683       -2.6759662977
 H         -0.5526810647        5.1328215922       -3.3010348419
 O          6.0919310714       -1.7305582254       -2.7581015982
 H          6.9495688514       -1.2765720013       -2.8763558619
 H          5.5047771506       -1.0741540918       -2.3366749975
 O         -3.9839171832       -0.8899541685        5.0109817907
 H         -4.1849104217       -1.8234445350        5.1348272156
 H         -3.5277602682       -0.8499596172        4.1284582763
 O          8.2410164881        1.8699589560        1.4890416321
 H          8.6275375831        1.2034484219        0.8897033424
 H          8.3036053150        1.5130521154        2.3973214066
 O         -0.6599010801        5.8167156086        3.0828055911
 H         -0.6268328768        5.1094402194        3.7350494526
 H         -1.5429954387        5.7829052999        2.6675181358
 O         -2.1888932961        2.7728471784        2.2886628190
 H         -2.8110884512        2.3459193745        2.8985486317
 H         -1.8025030224        2.0721905672        1.6818057002
 O          8.2801375418       -2.0207316925        1.1614967991
 H          8.1025146403       -2.0066805884        2.1213291726
 H          8.0867645144       -2.9470556877        0.8702427390
 O          0.7654914624       -4.4263985287       -3.9600338741
 H          0.4483518618       -3.6746940195       -3.4061609489
 H          0.1275359849       -5.1287159114       -3.8131669778
 O         -3.7904723259        1.8870634415        4.3592393010
 H         -4.6552509930        2.1782240027        4.0439679027
 H         -3.9136277271        1.0048262058        4.7287289156
 O          4.3180783028       -2.4111996533        0.5178367772
 H          4.8865219764       -1.6171790716        0.4495962298
 H          4.6895476590       -3.0168112575       -0.1659496771
 O          2.6512415591       -0.9978667336       -5.0787655232
 H          2.7161276067       -0.0279988839       -5.1823527836
 H          3.5716387889       -1.3131229635       -5.2585207754
 O          7.4212571684       -4.4382123542        0.5699498025
 H          6.8507985451       -4.3856572262       -0.2129679917
 H          6.8092107118       -4.4619782780        1.3266360321
 O          5.2451195467       -0.2831316301        2.9450161329
 H          5.3020609877        0.5330525991        3.4844107310
 H          4.5190841679       -0.8354068794        3.2929352403
 O         -2.8762577714       -0.6551465000        2.6398558911
 H         -3.0207636319       -1.5018793197        2.1764086147
 H         -3.4048748584        0.0127400919        2.1474203508
 O          6.1322512683        1.1301062113       -4.6872460668
 H          6.9640794463        0.7434377764       -4.3876701638
 H          5.9273699034        1.8213024465       -4.0381084431
 O         -3.9286252214       -4.8346593096       -1.2211810457
 H         -4.2358159215       -3.9132912488       -1.0921340477
 H         -3.4340904372       -5.0786477322       -0.4242687525
 O          2.5535640998        0.5717794219        3.2796124210
 H          2.2858592693        1.4984628228        3.1311314911
 H          2.8838758211        0.5241052823        4.1921555315
 O          3.6405609878        5.4246432715        0.6895043807
 H          4.0529082225        5.1586000542        1.5301266046
 H          2.6949783126        5.5421056718        0.8936569914
 O         -0.1252305695       -2.2592336019       -2.5899181969
 H         -0.3758196362       -1.5450082840       -3.2089902470
 H          0.7856137544       -2.0253101982       -2.3293395806
 O         -6.3396145445        4.1695349450        0.0884510698
 H         -5.4977195345        3.6812406235       -0.0463554903
 H         -7.0172373968        3.4954027176        0.2272472468
 O         -7.6815873125        1.8520929851        0.7930485364
 H         -7.1350077860        1.2110676486        0.3120643565
 H         -8.3033579017        1.3099263168        1.3240940494
 O         -3.8079785793        0.2357989449       -1.3247518848
 H         -4.1943110396        0.4054020516       -0.4544381665
 H         -3.2495904714       -0.5660578189       -1.2467875450
 O          5.7468435497        2.6110256264        1.0116141966
 H          5.8138932903        3.2791629597        0.3022173643
 H          6.6690471170        2.3108110087        1.1969559269
 O          4.2983330795       -0.0110335099       -1.6689031291
 H          3.8336244704        0.7409135383       -2.0956882846
 H          4.2511776346        0.1641198200       -0.7142402716
 O         -6.1372578740       -1.7400554182        1.8637108331
 H         -6.6762905620       -2.4944147239        1.5550165504
 H         -6.2769775891       -1.0557237992        1.1621272957
 O          5.5019228494       -3.8962523858       -1.3412451587
 H          4.8098973302       -4.3359943331       -1.8551434572
 H          5.8266947190       -3.1614504572       -1.9061580134
 O         -5.8471761276       -1.8651528361       -4.9247861339
 H         -5.5475183501       -2.6764942843       -4.4875362927
 H         -5.2447153102       -1.7699626469       -5.6895469711
 O         -1.6129014512       -4.8208884028       -2.6249234880
 H         -2.4942601959       -4.9190856437       -2.2226695721
 H         -1.0640108177       -4.4526352798       -1.9107645850
 O         -0.3417167055       -4.1796337020       -0.2372269687
 H         -0.4560516488       -3.3700510843        0.3059970219
 H          0.6161042563       -4.3840643834       -0.1595559144
 O         -9.4291142242       -2.2091855451        1.2467514762
 H         -8.7972923052       -2.9300962091        1.1248725014
 H         -9.5301574256       -1.8010151482        0.3764104293
 O         -4.8709872303       -4.2878872794       -3.8657275705
 H         -4.0831321564       -4.2634703394       -4.4181619215
 H         -4.5890562002       -4.6502590620       -3.0155760005
 O          9.5341868694        0.0046392915       -0.0879735643
 H         10.4551231075        0.0252099382        0.1713612224
 H          9.1521132918       -0.8027154124        0.3075445351
 O         -2.1049257793        3.0078202876       -4.4764108347
 H         -1.9877305456        3.9552330054       -4.2143251919
 H         -1.2203618769        2.7376333909       -4.7793403320
 O          4.5620848198        3.9909320371        2.9477163934
 H          3.6362244452        3.6812913513        2.9963240280
 H          4.9985592245        3.4689780377        2.2389289631
 O          5.5670033978        1.9270815136        4.4317909478
 H          5.2925001061        2.7773714931        4.0322447190
 H          4.9232337606        1.7161406854        5.1225109726
 O          0.9154389863        4.1929538278       -2.8072268316
 H          1.8188622489        4.4952298422       -2.6195371219
 H          0.5116579633        3.9983412144       -1.9365093618
 O          2.5413896440        3.0306396228       -0.2272529099
 H          2.8985240349        2.2520250374        0.2427189864
 H          3.0476968790        3.8016887354        0.0631529399
 O          6.2160280909       -0.4985473592        0.4436648397
 H          5.9375548532       -0.2042402227        1.3277776785
 H          7.0063503575       -1.0624988325        0.5905834778
 O          7.1505776900       -1.9567907984        3.6601377891
 H          6.7371061716       -2.8129852481        3.4573166599
 H          6.4718168696       -1.3063301825        3.3567065629
 O         -2.1125569442       -3.4225282140       -4.8772254829
 H         -1.8321018527       -3.9560286245       -4.1005151662
 H         -1.3008713270       -3.1020339070       -5.2899405279
 O         -5.5089245288        4.9079201552        2.5659823563
 H         -5.9180594194        4.8509909130        1.6812518849
 H         -5.7249595968        4.0739712969        2.9960439953
 O          0.5218096033       -2.4413662867       -5.8446065250
 H          1.3650548810       -1.9513706229       -5.8100254761
 H          0.7199053824       -3.2642629388       -5.3652548383
 O         -0.4723445402        0.2492831238        3.7614883629
 H         -0.3427491885        1.2191378477        3.7929207173
 H         -1.2524045338        0.0497305997        3.2221592992
 O         -5.2139004197        5.4434672471       -2.1039456602
 H         -5.8247955381        5.2244633074       -1.3831909046
 H         -5.1323148400        4.6361825898       -2.6318863156
 O          8.1285643964        0.8245653706        3.9686812447
 H          7.3119342260        1.2434386888        4.2805108877
 H          8.0074992058       -0.1275132806        4.0417610555
 O          2.7169068996        1.9291886039       -2.5603070375
 H          2.6442407311        2.4933654239       -1.7472103191
 H          1.9083902006        1.3738459824       -2.4949326152
 O         -3.7755833878       -1.6935542988       -6.6187228510
 H         -3.1865658014       -2.3699630860       -6.2671404108
 H         -3.4667937572       -0.8470278070       -6.2532022881
 O         -2.9820530380        0.4386271530       -5.0803494539
 H         -2.9537039586        1.3981758232       -5.1451957216
 H         -2.0536444649        0.1633222361       -4.8968115205
 O          5.3160170489        2.9243246383       -2.7171954450
 H          4.3515493404        2.9188596612       -2.7265782966
 H          5.5634898822        3.7102962540       -2.2071033435
 O          8.5328393573        3.5968316100       -0.6261531339
 H          8.2092275739        2.7742627199       -1.0376777456
 H          8.6989909782        3.3356292832        0.2901172770
 O         -5.0228555453       -2.3506977606       -1.3674031184
 H         -4.4362933715       -2.0765829440       -2.1074717673
 H         -5.8024043257       -2.7848889714       -1.7684599992
 O          2.5322012690       -1.8194914705       -2.5364674700
 H          2.5223626822       -1.5348712838       -3.4773622455
 H          3.1809750626       -1.2272450451       -2.1054469540
 O          1.9277252726       -1.6673157132        1.8109562211
 H          2.0784681356       -0.9144018059        2.4022093318
 H          2.7776962535       -1.8506375748        1.3893994792
 O         -9.1533295062       -0.6263229309       -1.0421471098
 H         -9.0001805781       -0.8000642964       -1.9857583484
 H         -9.5569630640        0.2399351708       -0.9659268565
 O         -0.6432009324       -2.0988054500        1.4232097430
 H          0.2955541611       -1.9504655006        1.6611547024
 H         -1.0683849149       -2.5808167343        2.1558617648
 O         -2.2344713865       -5.5448709419        0.9221566338
 H         -1.4906670989       -5.0657157821        0.4596395251
 H         -1.8989950467       -6.4212869100        1.1089294192
 O          0.5088986810        2.1863084858       -4.6019715747
 H          0.7114615421        2.8532211120       -3.9095016309
 H          1.2966566788        2.1425633590       -5.1531046940
 O         -3.9536978577        3.0437014955       -0.4741228049
 H         -4.1845933460        2.8346035756       -1.4013955745
 H         -3.4163283651        3.8552987375       -0.5224920245
 O         -2.9755602848        5.2844381898        1.7417702184
 H         -2.6965193662        4.3502981822        1.8258266795
 H         -3.8770028264        5.3089691944        2.1213210830
 O         -1.7854130576        1.7863528218       -2.0947501277
 H         -1.8840915209        2.1980375508       -2.9759147415
 H         -2.6080954664        1.2823438800       -1.9259094117
 O         -7.2330261563       -3.4695057478       -2.3236555884
 H         -7.6185749174       -2.6590276799       -2.7230479835
 H         -6.8910337378       -4.0025770376       -3.0479904232
 O         -6.1700501676        2.1085642939        2.9826108915
 H         -6.8137792831        2.2047273312        2.2472236803
 H         -6.4641072669        1.3118264000        3.4770904093
 O         -6.5303592528       -0.3794328881       -0.3228896473
 H         -5.9407671770       -1.0015263346       -0.8017488850
 H         -7.4438627977       -0.5880659672       -0.5899789869
 O          5.3444605599       -1.5790354774        5.8995065968
 H          6.2077396842       -1.6399760571        5.4718844708
 H          4.7287896237       -2.0375991389        5.2926218613
 O          7.0501448806        1.3881148734       -1.3096709526
 H          6.2945896526        1.8011011009       -1.7643564277
 H          6.6949254282        0.7419810706       -0.6648715669
 O         -5.0488041778       -5.0513347821        1.6446473503
 H         -4.4599745077       -4.2968102586        1.4225677532
 H         -4.5869013583       -5.8409184967        1.3629530388
 O         -4.6903356767       -3.2871719209        3.8141861758
 H         -4.9896411433       -4.1610742700        3.5402128292
 H         -5.1346724595       -2.6774015207        3.2065918282
 O          2.8783172768       -4.5458051589        2.8322438556
 H          2.6643335656       -4.6316354979        1.8931876640
 H          2.0210249228       -4.5273623765        3.2985150518
 O         -2.1412850279       -1.8009162926       -0.8242875866
 H         -1.5618986879       -2.0540042062       -1.5683056758
 H         -1.5568682605       -1.7312513047       -0.0530951529
 O          6.1405783546        4.6435654514       -0.7463508785
 H          7.1082745495        4.4179214211       -0.7388220209
 H          6.0171727854        5.4582190036       -0.2587750378
 O         -3.7404360852       -2.7406975033        1.0983290581
 H         -4.6000982604       -2.2853273721        1.1283171550
 H         -3.3225880571       -2.5125079846        0.2480740518
 O         -0.3259732784        2.9526245604        4.1331925484
 H         -0.8020122243        2.9091130187        4.9946911125
 H         -1.0120292020        3.0352556630        3.4300460364
 O          1.0617762428       -1.5286711882        5.0716779731
 H          0.5946894882       -1.3889324469        5.8988802433
 H          0.6764422203       -0.8897067239        4.4419219987
 O          3.6849926775        0.5125995340        5.8137146448
 H          4.3320636295       -0.2280618630        5.9095624018
 H          3.1076641332        0.4669142605        6.5751544609
 O          2.2825496865       -4.3835569826        0.0331324458
 H          2.6078452893       -4.5939286530       -0.8700863390
 H          2.6347729145       -3.5022302234        0.2119487551
 O         -4.3610430527        1.0556966682        1.2789798560
 H         -5.0302279145        1.4082787694        1.8994103527
 H         -4.0397086262        1.8333063801        0.7867930146
 O         -1.5094837393       -0.1883289571        6.2188487938
 H         -2.4079075237       -0.5044003459        6.0525859407
 H         -1.1146305093       -0.0590522665        5.3311760915
 O         -0.5452655689       -0.3575209556       -4.4642875145
 H         -0.1393770158       -0.9707979108       -5.1063091958
 H         -0.0146927209        0.4578519300       -4.4312178692
 O          3.2434634151        1.6366630181       -5.1896682999
 H          3.1370994377        1.8328133300       -4.2396232097
 H          4.1927317755        1.5728586550       -5.3399930581
 O          8.2376285461       -0.1332646052       -3.0682917369
 H          9.0956568977       -0.4051837978       -2.7425936639
 H          7.8839250485        0.4831963295       -2.3760286511
 O         -6.5674126596       -0.2768759433        4.1047792074
 H         -6.4882736174       -0.8442478069        3.3127269454
 H         -5.7753240730       -0.4625676249        4.6335526700
 O         -5.7088227621        0.3021700112       -3.2574605123
 H         -5.5067314165       -0.3546982251       -3.9519905981
 H         -5.0530122316        0.1633300270       -2.5434943215
 O         -2.0350331202       -3.7499510046        3.0810434422
 H         -2.1872242823       -4.3994650531        2.3743150078
 H         -2.9150674002       -3.5249191122        3.4281721050
 O          3.4486367737        5.1077304064       -2.1359920937
 H          3.7811317492        5.8723508404       -2.6042585659
 H          3.5952644433        5.2694627182       -1.1907298419
 O          1.9993485221        3.1524065578        2.8467230088
 H          1.6918722736        3.7224904339        2.1042469919
 H          1.2706464179        3.1937238851        3.4879013956
 O         -1.8465354675        2.5407556152        6.2527162844
 H         -1.6715894822        1.6075985680        6.4791339198
 H         -2.6724953738        2.5333975628        5.7481644431
 O         -0.6941344571        3.8409914707       -0.6891749826
 H         -1.1175116623        3.0519028931       -1.0782953490
 H         -1.3573411282        4.5446160542       -0.7456176737
 O         -2.8329492677        5.5013781317       -0.9300583068
 H         -2.9321197628        5.7357089971        0.0141876732
 H         -3.7003083191        5.6711869703       -1.3697237679
 O         -7.9847183946       -1.1003877112       -3.4024394986
 H         -7.2297958798       -0.4921187622       -3.2173204734
 H         -7.8488718096       -1.3425078734       -4.3248013204
 O         -3.3992884083       -1.6200957607       -3.3238858626
 H         -3.3753635066       -0.7983180563       -3.8334282343
 H         -2.9324645068       -2.2796529264       -3.8636567379
 O          5.5468917825       -3.8545841348        2.4800920436
 H          5.0825741416       -3.2701072924        1.8413121520
 H          4.8520412461       -4.4206248719        2.8329961200
 O          1.0126012023        4.9896368574        1.1940487054
 H          0.4143465546        5.4101626270        1.8520980383
 H          0.4496844323        4.5601708571        0.5330215997
 O          3.0875226017       -4.4056007218       -2.5058319761
 H          2.9703919623       -3.4242329515       -2.5282464091
 H          2.4241912409       -4.7213544816       -3.1369129312
 O         -7.2539633958       -3.8242651644        0.5580004745
 H         -7.2679700170       -3.8331568584       -0.4088103364
 H         -6.5799356440       -4.4623790108        0.8500861410
 O         -4.6292990762        2.8291483774       -3.0884172394
 H         -5.1104630755        2.0063709833       -3.2913709976
 H         -3.8877417298        2.8903650020       -3.7021724126
