  114
       -193.41417590
 O         -0.0833342671       -2.9470210057        2.5814856830
 H          0.0741749239       -3.8278055566        2.2032451213
 H         -1.0462185066       -2.8519127128        2.6671806069
 O          2.5751617441       -2.1478761868        3.0077177315
 H          1.7587652805       -2.5545758366        3.3217756175
 H          2.2850334970       -1.2995803889        2.6138029747
 O         -2.0431065420       -1.2955892267       -2.1408373010
 H         -2.3267457406       -2.0323463266       -1.5655189564
 H         -2.6167831790       -0.5545888635       -1.9238904078
 O         -5.7064047560        2.4391148981       -0.2983644266
 H         -5.5476991836        2.1078736117        0.6152831660
 H         -6.6541967431        2.4730219028       -0.4303381028
 O          0.0897965280        1.7919214483       -3.6839809758
 H          0.2668243043        0.8634710469       -3.4143533383
 H          0.5410954734        1.9308378785       -4.5170951051
 O          4.9812232603       -0.7175135271        2.9827379111
 H          4.3183015723       -1.3832573150        3.2191262344
 H          4.6619286319        0.1231909826        3.3506345093
 O         -2.0928471116        4.5796803004       -2.0850825438
 H         -2.8190403328        4.8410964907       -1.4801149800
 H         -2.5061709394        4.0962980923       -2.8101826141
 O          5.8680841084       -2.0067988498       -1.7544938494
 H          6.6220983769       -2.0825838182       -2.3391779988
 H          5.1259140744       -1.6057147633       -2.2771838475
 O          0.6041513211        3.8495557674       -1.7722082787
 H         -0.1832585289        4.3765594919       -1.9714840809
 H          0.5471233090        3.0764288341       -2.3534813505
 O         -2.1015625019       -0.0020981053        0.7214745401
 H         -1.6154267070        0.6705011194        1.2386636815
 H         -2.6112700993        0.4694105340        0.0424753863
 O          0.6897536225        1.0777925469       -0.7033441690
 H          0.5138107677        0.5701191832        0.0977503131
 H          0.6465616241        0.4257310164       -1.4405595338
 O         -1.7261375480        2.3803162333       -0.5578115311
 H         -1.8006822529        3.1672744530       -1.1278562621
 H         -0.8196941631        2.0430277536       -0.6596549093
 O         -3.8374338610        0.8033133901       -1.4418840158
 H         -4.4904422681        1.4106666666       -1.0512258848
 H         -3.3789227062        1.3388880010       -2.1187686067
 O          2.9823736304       -3.7420823782        0.8821502724
 H          2.9972417907       -3.2745934094        1.7417676525
 H          2.1934467049       -4.3139023885        0.9228420365
 O         -5.1776747293       -1.5479583216       -0.9169098163
 H         -5.9226349834       -1.6383021980       -1.5111398655
 H         -4.7068720000       -0.7307362540       -1.1647242888
 O         -2.7707667668        3.0089266909        1.7866972185
 H         -2.4031165532        2.7751693390        0.8955263112
 H         -2.0920880014        2.7250784378        2.4076384835
 O         -0.3449218283       -3.7915399997       -1.0718718284
 H         -0.1910029378       -2.9059571324       -0.6706643921
 H         -1.3067265089       -3.8882396693       -1.0908173022
 O          3.6998449769        1.6508136945        3.7658307917
 H          3.5580532293        2.4375586117        3.1788286304
 H          3.7451307833        1.9821747563        4.6630447923
 O          2.6092869989       -1.4349943666       -0.3700289156
 H          1.6589578188       -1.3100636900       -0.1918544293
 H          2.7881923529       -2.3481078238       -0.0441042801
 O         -2.6951953333       -2.2811025774        2.0451258891
 H         -2.4575668965       -1.4053100753        1.6852169999
 H         -3.6389121229       -2.1670852594        2.2698265061
 O          3.9115694279       -4.0740150244       -1.7049339737
 H          4.7313400915       -3.5632732180       -1.7158179092
 H          3.7029436077       -4.2153502624       -0.7722301189
 O          0.4506733157       -0.6490010095       -2.6774476644
 H         -0.4762923282       -0.9438452793       -2.5211565077
 H          0.9615145275       -1.4742779664       -2.8076823466
 O         -4.0199727029        4.6917803067       -0.2096791989
 H         -4.6704564445        3.9930348689       -0.3778806436
 H         -3.6250055731        4.4713249467        0.6415592363
 O         -5.1698070423       -1.2767312419        1.9025562128
 H         -5.3003419003       -1.4340372282        0.9561627211
 H         -5.0804022619       -0.3185982895        2.0032044029
 O          0.6123009943       -5.1006252318        0.9988048336
 H          0.2371841441       -4.7187813477        0.1629211669
 H          0.5203610029       -6.0514949486        0.9426387031
 O         -4.9531160075        1.5665965711        2.1073020163
 H         -5.3737438283        1.8533927143        2.9189183265
 H         -4.0981962865        2.0687289104        2.0373762310
 O          3.6676766259       -1.0091542868       -2.8243319750
 H          3.2782024745       -1.5683993668       -3.5018051509
 H          3.1381650953       -1.1921780438       -2.0180096530
 O          3.1047543766        3.4915476142        1.9740188629
 H          2.1909543593        3.7864322704        1.8356471460
 H          3.3011609147        2.9784259359        1.1742153764
 O          0.0353769936       -1.5210311484        0.3313573489
 H          0.0670018192       -1.9744279427        1.2053800525
 H         -0.8110586247       -1.0250410748        0.3219247011
 O          1.6653526127       -3.0429664358       -2.8622622699
 H          0.9300558648       -3.5212154107       -2.4537648298
 H          2.4725158762       -3.4737332710       -2.5175601707
 O         -0.4072055771        1.6111882439        2.0979895082
 H         -0.0624073727        2.4063080192        1.6464280353
 H          0.3732562723        1.0681253282        2.2942191305
 O         -2.6151634805        2.1635732770       -3.5033125135
 H         -2.9517620386        1.8489230234       -4.3430100662
 H         -1.6456765803        2.0309547896       -3.5210761685
 O         -2.9699732201       -3.2223265693       -0.4630637812
 H         -2.8356986243       -3.0016873650        0.4862441286
 H         -3.8826281755       -2.9643228189       -0.6484183566
 O          2.0112532922        0.3376778135        2.1308491554
 H          2.4316902289        0.6862097408        1.3265746805
 H          2.4890512133        0.7642056631        2.8649582762
 O          0.5640689931        3.8653805478        0.9071651307
 H          0.6686309645        3.7892351751       -0.0711747045
 H          0.0549429874        4.6643097656        1.0520520881
 O          3.5420398906        1.2144558302        0.1391385824
 H          3.4113364016        0.3320055188       -0.2405664457
 H          4.4561915301        1.2257223881        0.4815916292
 O          6.0241887204        1.0995340137        1.2589857008
 H          6.7155310761        0.6973392387        0.7338929662
 H          5.7237914685        0.4041969232        1.8712912289
 O          2.9112499813        1.4293114111       -3.6204846203
 H          2.7412070805        1.8187811473       -2.7589942320
 H          3.2994096508        0.5633231955       -3.4077820634
