  132
       -218.68367913
 H          0.2296692133        0.6397672284        1.8654340385
 C          1.0760651340        0.2775828061        1.2809902743
 H          1.9858765434        0.3869655590        1.8707899502
 C          1.1769167203        1.0700428765       -0.0122749137
 H          1.3812744397        2.1130907691        0.2121858460
 H          0.2319570640        0.9934902702       -0.5470873480
 O          0.9173394623       -1.1016449635        1.0021209373
 H          0.2246541499       -1.1565383707        0.2927289413
 N          2.2585996585        0.5334803440       -0.8527218459
 H          2.0362513063       -0.4325531132       -1.1729303416
 H          3.1470577728        0.4966813620       -0.3034390651
 H          2.3892027812        1.1689837421       -1.6858039167
 O          2.7277847400        2.4180269596       -2.6836928727
 H          3.2381626229        2.9512632529       -2.0562286603
 H          3.3920341320        1.9336046200       -3.2346815108
 O          4.0938345069        3.4030058948       -0.4430305892
 H          3.5721160824        3.3090866808        0.3819871586
 H          4.5255933914        4.2554232452       -0.3790922724
 O          4.1446892082       -1.7811900270       -3.1102297480
 H          4.2081641497       -2.5068589871       -3.7309614378
 H          3.3066797101       -1.9128311078       -2.5959449596
 O          0.4467064155       -0.1326171921       -2.9729541948
 H          0.5008276927       -0.7163375453       -3.7288441193
 H         -0.0615373408       -0.6095641042       -2.2798745813
 O         -0.0852121515        3.7640510828        1.9768769437
 H         -0.2821202579        4.6748894867        2.2011750843
 H         -0.3809089623        3.6559659197        1.0342422003
 O         -2.1759592399       -1.5137122954       -4.0521905760
 H         -2.1915280449       -0.5690622681       -3.7996808805
 H         -2.3330036255       -1.5504833987       -4.9963898672
 O          0.2494887998       -3.6806658084        1.6750008748
 H         -0.3163450474       -3.6350969941        2.4576969855
 H          0.4983643818       -2.7554083037        1.5172239255
 O          2.5377575866       -0.6882795577        4.4332526405
 H          2.8283721740       -1.1848502827        3.6372283518
 H          2.7937746641       -1.2127109831        5.1932303221
 O         -0.9317637054        3.6092734884       -0.5011656829
 H         -1.8635384958        3.3394593056       -0.5423732228
 H         -0.5286487515        3.2393635819       -1.3078447850
 O         -2.4512306771        1.1192134642       -3.3927393982
 H         -3.2501515808        1.6530337827       -3.5030532077
 H         -1.7082721613        1.7274411789       -3.2602707230
 O          3.3489714856        1.8790026337        4.1193783917
 H          3.0381571675        0.9573169943        4.2330389959
 H          3.0875465139        2.3563780375        4.9080041341
 O         -0.8554608109       -1.3019524202       -0.9534040759
 H         -0.9282941149       -2.2803860793       -0.9964479163
 H         -1.7683792502       -0.9519282207       -0.9359837884
 O         -0.0109342837       -3.0868912051       -3.2147641729
 H         -0.8041362753       -2.6078846637       -3.5029763741
 H         -0.3139776977       -3.7193779954       -2.5499650196
 O         -2.0244365306        0.7434598129        0.8465700228
 H         -2.5248283583        1.3290201417        0.2590768137
 H         -1.9587757252        1.2021643663        1.7067487002
 O         -1.4241294776       -2.5234531426        3.5335607292
 H         -1.9779762303       -2.1849151030        2.7896049675
 H         -2.0249290351       -2.7930359488        4.2282421022
 O         -5.6368386166        0.4711828472        0.1704732445
 H         -5.6702639168        1.4136242332        0.4078164567
 H         -5.5950386796        0.0012886086        1.0217616466
 O         -4.4389061434        1.9660014952        3.3181283119
 H         -3.4695198694        1.9989031863        3.3847286201
 H         -4.6783194078        1.0318067363        3.2119257472
 O          4.4138619808        0.1725524843        0.7584122978
 H          4.1205873108       -0.5183307944        1.3808794688
 H          4.8882220223        0.8461444664        1.2721785668
 O          2.3612794694       -4.2250142118       -0.1270734637
 H          1.7381122836       -4.3010328461        0.6051175025
 H          3.2574712607       -4.1627207500        0.2406400944
 O          3.3025955908       -1.8663859475        2.1674779508
 H          2.4952816014       -1.8396779232        1.6275830054
 H          3.8665429381       -2.5750492021        1.7973032337
 O          4.8508897826       -3.5494597550        0.8003627544
 H          5.1839164320       -2.8695727735        0.1404500075
 H          5.5994064480       -4.1093384088        1.0050733404
 O         -4.9570775452        2.1711696937       -3.0241360239
 H         -5.3979274257        1.3089896766       -2.8722021453
 H         -5.5778116268        2.7293732141       -3.4928430246
 O         -5.4176096717        3.0263410617        1.1527055886
 H         -5.0370764241        2.6875697288        2.0131955887
 H         -6.0062377267        3.7445297079        1.3835287796
 O         -1.6857527222        1.9191510000        3.2285319739
 H         -1.1670984156        1.2544880619        3.7223349019
 H         -1.0682832282        2.6148088237        2.9404111870
 O          4.6085567200        0.8954249427       -3.7077644186
 H          4.4046436922       -0.0511186346       -3.6545138749
 H          5.2251362438        1.0541572238       -2.9737736187
 O         -3.3574190041       -0.4158470802       -1.2488504577
 H         -3.1149104497        0.2232932276       -1.9354741183
 H         -4.0512819324       -0.0148223851       -0.7062136859
 O          2.6181724554        3.3184561737        1.8036069164
 H          1.6713354165        3.5162550698        1.9107810780
 H          2.8848296998        2.8184317908        2.5864346393
 O          5.6852162513       -1.7059027597       -0.8347006087
 H          5.2630656126       -1.7325139060       -1.7113147134
 H          5.4344581544       -0.8473296236       -0.4538945555
 O          1.9803687206       -2.1126567816       -1.6599393860
 H          2.1299471535       -2.8850749927       -1.0670232563
 H          1.2726199236       -2.4060913437       -2.2685460202
 O         -6.1378094737       -0.1922129357       -2.3744622949
 H         -6.0395944687       -0.0398400515       -1.4103928340
 H         -7.0468969542       -0.4519318206       -2.5278355890
 O         -2.9506758721       -1.6014668251        1.5682105883
 H         -2.5658137525       -0.7607616763        1.2003819802
 H         -3.1850074913       -2.1662743987        0.8077976264
 O         -5.1479830609       -0.6455280810        2.6079155875
 H         -5.6117012618       -1.3083530637        3.1182453923
 H         -4.3035023799       -1.0529579307        2.2756636693
 O         -0.0566020453        2.4624470649       -2.8309250240
 H          0.1689686171        1.5077854645       -2.8835128951
 H          0.7760598466        2.8950881677       -3.0508792249
 O         -1.0676231573       -3.9482000000       -0.7578059788
 H         -0.6067155791       -4.0570662577        0.0925778398
 H         -2.0231638366       -3.9300482546       -0.5713000965
 O          5.8031288305        1.3935006665       -1.2972550554
 H          5.2293051821        2.0771312360       -0.9098751333
 H          6.6891838159        1.5464174764       -0.9712432780
 O         -3.4730716497        2.5882149648       -0.6701478701
 H         -3.9501714148        2.5250787697       -1.5103773475
 H         -4.1223103130        2.8961489421       -0.0145789223
 O         -0.2409484453       -0.1126070787        4.2894940229
 H         -0.6201128366       -0.9684250478        4.0268058591
 H          0.7138201326       -0.2523594482        4.3408472104
 O         -3.7009188435       -3.3809275725       -0.3595110479
 H         -4.3345030869       -4.0813691323       -0.2048449955
 H         -3.9488784506       -2.9829867463       -1.2420880849
 O          5.6033723428        1.9188371155        2.4744124344
 H          6.4214991742        1.8772332294        2.9697001569
 H          4.8810894549        2.0042830208        3.1164362427
 O         -4.4307366412       -2.4960760809       -2.7179085481
 H         -3.6066411907       -2.2234559165       -3.1563938012
 H         -4.9440822872       -1.6816664933       -2.6049960228
