  191
       -320.31759825
 H         -0.5849187083       -0.9699160986       -2.0554140316
 C         -0.7246033692       -0.6857118848       -1.0159282768
 H         -1.6479415830       -1.1295962450       -0.6415741486
 C         -0.8180987462        0.8319379705       -0.9249790032
 H         -1.6574339582        1.1349461552       -1.5575388307
 H          0.0893867650        1.2826108955       -1.3256842353
 N         -0.9722734183        1.2670359005        0.4602139134
 H         -1.2369387389        2.2456041688        0.4783316367
 H         -1.7298463124        0.7484757675        0.8977454758
 O          0.3730501136       -1.2188692584       -0.2945037231
 H          0.1161686994       -1.1790501477        0.6850654944
 O          0.7471647467        1.3872655336        2.5263577638
 H          0.1969798113        1.2159134440        1.7209553920
 H          0.2751770272        0.9297827749        3.2548632992
 O          7.0567729438       -0.3968010665        0.7705603274
 H          7.3080074569       -0.1449676438       -0.1343674162
 H          6.6198477234        0.3906044623        1.1418802919
 O          1.4675128834       -2.6911283634        3.4361285746
 H          1.6531511470       -3.6027390793        3.1161048182
 H          2.1711389080       -2.1416903144        3.0345684787
 O          1.8857410620       -5.0313167151        2.2541536394
 H          2.4137646910       -4.7349207529        1.4974436357
 H          1.0033245454       -5.2502188739        1.9242197275
 O          0.2539377043        3.9331438134        3.0795949436
 H          1.0513102360        4.3183750625        3.4657514626
 H          0.4876969984        2.9912689346        2.8756546874
 O         -2.3065970836        0.6644065764       -4.1556864289
 H         -2.7126697381        0.7903782104       -5.0136673456
 H         -2.5701471753        1.4483236879       -3.6098473069
 O          2.4321308515        0.3436122695        0.3554545529
 H          2.0898348175        1.2493260844        0.4961081497
 H          1.6946642748       -0.1934456860        0.0018050278
 O          2.2063657484        0.3467118325       -3.0026038693
 H          2.9642995988        0.2193212341       -3.6140305221
 H          2.3452953407       -0.3212294624       -2.3045160113
 O         -0.3845037904        4.6140232162        0.5996547103
 H         -1.3427637747        4.4318610717        0.6408912942
 H         -0.1199892235        4.5859179825        1.5463320319
 O         -0.9815700824        4.1452747018       -2.2560121368
 H         -0.8724740010        4.5295066804       -1.3808718651
 H         -0.1759475061        3.6276056135       -2.4193237951
 O          2.7203000329        5.1746129233       -2.8339734701
 H          2.3089392433        5.5681371938       -2.0163620146
 H          2.6901380233        5.8588374703       -3.5013974786
 O          6.2807663078        1.7121789604       -3.6021138400
 H          5.7424010655        2.3832573636       -3.1411837009
 H          5.6649367793        1.1612250194       -4.0953652872
 O         -2.1365588314        2.5345970895        3.5835936766
 H         -1.7113392729        1.8515620820        4.1279445819
 H         -1.4499537195        3.2106147732        3.4852383179
 O         -4.8461444052       -4.1351187312       -2.3066772441
 H         -4.8505408211       -4.7413046619       -3.0464448653
 H         -5.2230165182       -3.2814991407       -2.6505292683
 O          1.4301890789        2.8488536375       -2.4463351688
 H          1.9630116992        3.5813054096       -2.8006922807
 H          1.7941527862        2.0034728579       -2.7683094167
 O         -4.2717535281        1.7117860970       -0.2294939434
 H         -5.2031783957        2.0022893174       -0.0205068260
 H         -4.0379896016        1.0562189653        0.4474009717
 O          1.3745462808       -0.9883273626        5.6290946475
 H          2.2210679105       -0.5430518776        5.4867457627
 H          1.3573058811       -1.7137202588        4.9848699193
 O         -5.4598879261       -0.9042344331        3.3493626019
 H         -6.2196488624       -0.7408936206        2.7726204932
 H         -4.7651005133       -0.3215470309        2.9968900077
 O         -2.8620091092        3.6957780087        1.0098581278
 H         -2.8939309890        3.4440132795        1.9396743439
 H         -3.4305810451        3.0639046593        0.5326023625
 O          5.5947672494       -1.1801916745       -2.2222357667
 H          6.5547554426       -1.1720906848       -2.1802849797
 H          5.3184709042       -0.3644781487       -1.7329208976
 O         -2.5881792115       -1.4710278823        3.9804436115
 H         -3.4451796181       -1.6063724572        4.3889180104
 H         -2.1688170163       -2.3554090945        3.9006477800
 O         -1.2616280622       -3.0918931570       -3.4110510964
 H         -0.6465385638       -3.8291228473       -3.5238530351
 H         -0.7911463446       -2.3097413301       -3.7491170241
 O          3.3975595563       -1.1794241599        2.3259733646
 H          4.1519758945       -1.6437567978        1.9168539359
 H          3.0387008141       -0.5730585613        1.6394865512
 O         -6.1360598435       -1.9676123681       -3.1002340014
 H         -6.8773187146       -1.8435745794       -2.4909773566
 H         -5.5902726568       -1.1691154656       -3.0262173322
 O         -2.4101092803       -4.0855311616       -1.0006422392
 H         -1.8419824351       -3.7216489172       -1.6943141122
 H         -3.2946173431       -4.1304064550       -1.4027679345
 O          3.2979727028        2.0073195017        3.0227258411
 H          3.5148774539        1.3967918995        3.7478579357
 H          2.4035916982        1.7348749049        2.7214870787
 O          1.7633912648        2.9329648798        0.1881895805
 H          0.9304572263        3.3722251574        0.4297518596
 H          1.7481425587        2.9200607433       -0.7934719746
 O          3.3102343859       -3.7643927671        0.1608990952
 H          3.2079788184       -3.0784813648       -0.5352738179
 H          4.1187229035       -3.4973178063        0.6182690945
 O          2.2503821003       -2.6747761893       -4.2769401278
 H          1.5212857933       -2.0765467732       -4.4909082815
 H          1.8344391674       -3.5239394834       -4.0520914925
 O          4.5830400773        0.9114342884       -0.9975042064
 H          4.4693992398        1.7521528368       -1.4809073298
 H          3.7159420918        0.6563357315       -0.6080301053
 O         -6.7778003404        2.2359478045        0.2814991964
 H         -7.2837676632        2.0302053890       -0.5269149668
 H         -6.9243379679        1.4598827691        0.8498266579
 O          0.9007032159       -4.7852806995       -3.1534694597
 H          1.1237426374       -5.7128258551       -3.0837668880
 H          0.8307677324       -4.4393780072       -2.2273383376
 O         -3.3007141050        0.4470138470        2.1530400679
 H         -3.0125994380        1.2287840621        2.6539261093
 H         -2.8726301702       -0.3064081291        2.5999406359
 O         -6.8236766999       -0.3609667343        1.0481838584
 H         -7.4874034277       -0.7766410117        0.4853841354
 H         -5.9701435448       -0.5428914489        0.6149388310
 O         -0.4344868449       -1.2506190235        2.1284930455
 H          0.1589477136       -1.7987240472        2.6722821696
 H         -1.2469606459       -1.7632445136        1.9636743056
 O          7.7973094875        0.4333937109       -1.7900973671
 H          8.6013458287        0.9433875272       -1.6936614286
 H          7.2428661266        0.9301530418       -2.4379602255
 O         -3.1797191424        2.6926838774       -2.6966405335
 H         -2.4338705372        3.3232863041       -2.5994296021
 H         -3.4950140746        2.5210936234       -1.7977815867
 O         -3.3632694920       -1.4096247606       -2.6331900838
 H         -3.0576753568       -0.6491216253       -3.1513232708
 H         -2.8077707501       -2.1500514335       -2.9026963804
 O          0.0915277693       -0.8054608755       -4.2516800877
 H          0.7863389732       -0.2808742128       -3.7996179111
 H         -0.6771227708       -0.2191504386       -4.3202747481
 O         -4.4956157738       -1.1761783271       -0.1981137393
 H         -3.7635350990       -1.4902676750        0.3821672924
 H         -4.1448258020       -1.2151952497       -1.1103687510
 O         -0.7669428227       -4.9704960972        1.2411624595
 H         -0.3581772339       -4.4906790656        0.4895690834
 H         -1.5914904060       -5.3165027535        0.8946389384
 O         -0.6743639143        0.4157258380        4.5960659430
 H          0.0260070537       -0.0231450929        5.1211589888
 H         -1.3111012103       -0.2876728605        4.3789023302
 O         -5.2635088032        0.6863217713       -2.5982585502
 H         -4.8764729965        0.8400107133       -1.7142353926
 H         -4.9415566886        1.4113171131       -3.1388893150
 O         -4.7176781074       -3.3725021180        2.5106781356
 H         -5.0300019422       -2.5390142259        2.9225019710
 H         -5.3385135147       -3.5594276117        1.7934861245
 O          0.6995870111       -3.8147210158       -0.6938499275
 H          0.5584441455       -2.8382735855       -0.6505415709
 H          1.5884389329       -3.9453533524       -0.3339175184
 O          2.8838008096        4.5010362046        3.7771182489
 H          3.0948998096        3.5596037935        3.5487581421
 H          3.4395365049        4.7441005005        4.5162374452
 O          3.3378402300        4.9172920922        1.0887793239
 H          3.2044298560        4.9671133660        2.0476454592
 H          2.8712964971        4.1013405615        0.8018510044
 O         -2.6378198640       -2.4843075064        1.1573295604
 H         -3.2894494064       -2.8998604857        1.7721933381
 H         -2.4772579154       -3.1343612774        0.4435259512
 O         -7.8772277904        0.9111486572       -1.8477978585
 H         -7.0003551057        0.8240610912       -2.2657348416
 H         -8.1299192694        0.0200746153       -1.5860488173
 O          5.5324206490       -2.4610575265        1.2682951283
 H          6.0990741999       -2.9882439409        1.8313655158
 H          6.0915598277       -1.6879496369        0.9798173443
 O          4.6582144599        3.3297969778       -2.1265726891
 H          5.1610943406        3.7106189280       -1.3601537687
 H          4.0597038968        4.0328387353       -2.4197716030
 O         -8.0565567079       -1.9212992269       -0.9807475402
 H         -8.8795923825       -2.4071657757       -1.0226149775
 H         -7.3809020616       -2.5330435954       -0.5788332272
 O          1.6535831304        6.1512677269       -0.6343137112
 H          2.3421779391        5.9163070732        0.0174240439
 H          0.8400224779        5.7496918934       -0.2952254248
 O         -6.0534837076       -3.3161410696        0.0018292715
 H         -5.7192134924       -3.8970775436       -0.6971625079
 H         -5.4639708581       -2.5198072341       -0.0484280366
 O          3.0354421567       -1.9606326120       -1.7969718605
 H          3.9902693507       -1.8030888108       -1.8678865510
 H          2.7628486881       -2.3114853207       -2.6713228791
 O         -1.2226642249       -3.7558290957        3.7039956703
 H         -1.1447442379       -4.2027256411        2.8437322927
 H         -0.3243583072       -3.5729225951        3.9941819452
 O          3.8708904916       -0.0656142945        4.6720497774
 H          3.7232362548       -0.5420713459        3.8170707300
 H          4.7438032397       -0.3072599611        4.9797215241
 O          4.3141104048       -0.4380300881       -4.4496344960
 H          4.8710530488       -0.7755745766       -3.7111588091
 H          3.9093604139       -1.2148976955       -4.8465494932
 O          5.7746201913        4.2068693508        0.0952083943
 H          5.8884145201        3.3938400088        0.6204945743
 H          4.9882852255        4.6409455408        0.4741251576
 O          5.5007757259        1.7807648051        1.3637751387
 H          4.7247807243        1.8714163112        1.9440229285
 H          5.1520785051        1.4754598909        0.4978078777
