  129
       -218.85614122
 O         -0.5609761236        3.5787619898       -0.2366139110
 H         -0.9583550898        3.4702048962       -1.1094049262
 H         -1.1846192459        4.1208990676        0.2985290059
 O          3.6649927012       -3.0177389665        0.5443844653
 H          3.9900637964       -3.8939007242        0.7584973375
 H          4.4703555614       -2.4305859860        0.5595955351
 O         -4.0085884450       -2.8931466941       -2.3985081193
 H         -4.1635921232       -3.7346691934       -2.8285864776
 H         -4.7658152416       -2.7430572477       -1.7847219989
 O         -5.9376971739       -2.4857819928       -0.6248291858
 H         -6.3889656942       -1.6368046914       -0.7270356794
 H         -5.6650684195       -2.5115025193        0.3012544506
 O          4.9490914521        2.8891926940        0.2860151408
 H          4.1844507854        3.4806156188        0.2991515914
 H          5.1874344942        2.7884964325       -0.6538576876
 O          2.4534320553        2.3102232187       -2.2971918283
 H          2.3921247978        2.7025811288       -1.3997396532
 H          1.9656324388        2.9305887337       -2.8778374392
 O         -2.7010477364       -0.7925053792        1.2693789167
 H         -2.4711329167       -1.3169807707        0.4691904939
 H         -2.3217985109       -1.2792726627        2.0371314007
 O          2.1009131943       -2.0808316175        2.5363039204
 H          2.5497420780       -2.4412699587        1.7443144891
 H          2.8083495055       -1.6060240317        2.9964585543
 O         -4.0819877938       -0.8715226387        4.4404743890
 H         -3.2515556182       -1.3380270656        4.2049384062
 H         -4.2841608813       -1.1097393965        5.3454642376
 O         -1.9612783445       -2.3684275200       -0.7075160753
 H         -1.6340827397       -3.2161943890       -0.3378268780
 H         -2.6430729051       -2.5909494497       -1.3700348333
 O          2.2488976703        3.6847822072        0.0204695421
 H          1.9726075427        3.2923812962        0.8722638796
 H          1.4674875196        4.1750505673       -0.2593949469
 O         -4.8235587863        1.6126949685       -0.7467716011
 H         -4.7756661833        2.2738361835       -0.0387772658
 H         -5.5843790269        1.0523935419       -0.5332333279
 O         -4.6242833729        3.1561843496        1.5515756747
 H         -5.3989269517        3.4854612185        2.0081439071
 H         -4.2198655987        2.4606618389        2.1128182317
 O          0.3167945200       -4.9707987770       -2.0476536708
 H         -0.1257312395       -4.3720314870       -2.6737161039
 H          1.2339718769       -4.6462626457       -2.0258962251
 O         -0.1421593961       -3.7477354400        2.7545559364
 H          0.7240084424       -3.3147179215        2.7488006990
 H         -0.3020819658       -4.0779397795        1.8552884765
 O          0.2854881486       -0.1188158624        3.0514300027
 H          0.8228453283        0.4526441193        3.6217549331
 H          0.9007681613       -0.8298999545        2.7773074283
 O          2.4348954250       -3.2668004954       -1.9159469875
 H          1.6814810215       -2.6570754434       -1.8280012638
 H          2.9299474173       -3.2029892419       -1.0805537287
 O          4.0255160619       -0.1706885300        2.9424650457
 H          4.9555244618        0.0705783102        3.0145106072
 H          3.8055410310        0.0319246902        1.9949597880
 O         -1.3133603977        3.0029988627        3.4440636600
 H         -1.9943402525        2.3157331791        3.2879301102
 H         -1.3309454204        3.2086477262        4.3790085778
 O         -3.2928133113        1.2467862148        2.9009527239
 H         -3.6647202445        0.6669439368        3.5882953829
 H         -3.0598448316        0.6361067437        2.1751753029
 O          3.6662449291       -1.5347896421       -3.6432627835
 H          2.8920905408       -0.9802271387       -3.8318690504
 H          3.3256051993       -2.3225279281       -3.1822416869
 O          1.3955854226        0.0728739208       -3.4965098947
 H          1.8596599084        0.8071412754       -3.0539030883
 H          1.0304161540       -0.4927426941       -2.7888239807
 O         -5.2308407888       -1.3870807020        1.9136099598
 H         -4.3367344419       -1.1610777726        1.5713330846
 H         -5.1480935313       -1.3222997558        2.8736564430
 O         -0.5215967235       -2.9020456189       -3.6444776920
 H         -1.1643241694       -2.1711174162       -3.5776098616
 H          0.0899099117       -2.6721265930       -4.3442149928
 O          6.3296872469        0.9513695039        1.8309403546
 H          7.2675123878        1.1426031184        1.8680387821
 H          5.9158186021        1.6858458730        1.3476750263
 O         -1.7418773609       -1.8174306196        3.5193683448
 H         -1.2556282576       -2.6573909603        3.3297165519
 H         -1.0394798529       -1.1437919919        3.5897293294
 O          1.2209170822        2.6704850510        2.2829100361
 H          1.7364391093        2.3146690431        3.0206365181
 H          0.3778532974        2.9605095467        2.6558864838
 O          5.1101596595        2.3843389602       -2.4041245693
 H          5.4369542558        2.8526285545       -3.1721422709
 H          4.1250917077        2.3528180327       -2.4750182961
 O          5.8453722615       -1.5506895876        0.5144137748
 H          5.7587465878       -1.2037158924       -0.3910178991
 H          6.0018746075       -0.7730783613        1.0708184045
 O          3.5859132774        0.5403272678        0.4442940505
 H          4.0191033520        0.1056399572       -0.3197862969
 H          3.9903538480        1.4266487819        0.4690409608
 O          4.9621675866       -0.3008638126       -1.7027927219
 H          5.2346179371        0.5612361457       -2.0471073436
 H          4.5510429104       -0.7850779473       -2.4603938162
 O         -2.3640243566       -0.9015550239       -3.3669810080
 H         -2.3582071549       -0.4154012283       -2.5143476629
 H         -3.1214651621       -1.4991197806       -3.3087803363
 O         -0.8814450098        1.0929115510       -4.4990057375
 H          0.0021577335        0.7356282976       -4.2592064594
 H         -1.4964770746        0.3531694334       -4.3676749713
 O         -1.6206143313        2.8331217139       -2.7634609301
 H         -1.3473286776        2.1608837463       -3.4708761567
 H         -2.4285027079        3.2411394166       -3.0795208521
 O          0.8184814463        3.8141977828       -3.7944431068
 H          0.7359235134        3.5265404201       -4.7058479190
 H         -0.0437825624        3.6592281853       -3.3782912528
 O         -2.4052172401        0.7059897185       -1.1948840760
 H         -2.0897749035        1.4855079441       -1.6859373195
 H         -3.3490096137        0.9106702328       -0.9987398041
 O          2.3059464685        1.2394782094        4.3525759398
 H          2.9946158262        0.7202365075        3.8613163948
 H          2.6605554639        1.4131159127        5.2242343851
 O         -2.2939299294        4.6716484279        1.4223398363
 H         -1.9139226480        4.2938962986        2.2298439016
 H         -3.1767110318        4.2790955395        1.3344530002
 O         -6.8324045714        0.0293631793        0.2936185331
 H         -7.7342614383        0.1230286027        0.6001715185
 H         -6.3263477952       -0.4266290659        1.0012630858
 O         -0.8710141849       -4.6202278112        0.2187842515
 H         -0.3478811947       -4.7919150114       -0.6231720297
 H         -1.3728115312       -5.4206549494        0.3776032615
 O          0.5277886997       -1.4085322395       -1.4506599569
 H         -0.3841002664       -1.7090702145       -1.2989900453
 H          0.6377750339       -0.6524840468       -0.8327363173
 O          0.3976699132        0.8016651411       -0.0417812398
 H          0.7402722314        1.2926306200        0.7114990566
 H         -0.5488564240        0.9714316517       -0.0783201318
 O         -4.0435396905        4.2579274448       -1.5078397603
 H         -3.5004045030        4.4266848564       -0.7335487934
 H         -4.3557451625        3.3486230171       -1.4315730476
