  219
       -371.68239598
 O          2.6531993060        2.6370505215       -0.9547992288
 H          2.0697753262        2.5072674076       -0.1621548132
 H          2.9179713125        3.5601018216       -0.9490018670
 O         -3.9649514054       -0.2038315266       -4.8559719872
 H         -3.7163797288        0.7211463686       -4.9998950531
 H         -3.1097458209       -0.6396142381       -4.6770604204
 O          7.0985017742        0.2696414681       -2.9846095687
 H          6.4820047886        0.4779838237       -3.7109827039
 H          7.2350349266        1.1306970502       -2.5238576766
 O          4.2611109831       -1.2113457652        4.3582551288
 H          4.7415538528       -1.3478235846        3.5240601796
 H          4.6679064402       -0.4114704283        4.7228046522
 O         -8.1604802367        1.4131459752       -1.8576501186
 H         -7.4064071134        1.0822906112       -2.3800233919
 H         -8.8464856593        1.6405565876       -2.4849098563
 O         -3.3697670110       -1.0281831537        0.8001396124
 H         -3.9326340787       -1.6099667410        1.3391805164
 H         -3.2563883099       -0.2057932633        1.3093097115
 O         -4.8291017105       -2.4515392632       -3.0079050296
 H         -5.0297320946       -2.0818475057       -3.8700957053
 H         -4.1147848275       -1.8712683519       -2.6387594472
 O          1.1878049050       -0.2363232369        2.1996914896
 H          1.3797841053       -0.1028758874        3.1495618934
 H          1.9690327276       -0.6729685818        1.8031951621
 O          3.7310152331        1.2723799129        2.1272360840
 H          3.0748922670        1.7317959935        2.6959467843
 H          4.4081930673        0.9982914076        2.7666292406
 O          1.0567069602        2.1144053988        1.0259537297
 H          0.7648497438        2.7754365718        1.6771169503
 H          1.1507407823        1.2662355087        1.5171726866
 O         -1.5746462086        3.0319060912        0.2073174119
 H         -1.4918868392        2.7792646992        1.1298345782
 H         -2.2213960034        2.4045395298       -0.1948444224
 O         -2.8659628570        2.3677870375       -4.5955219181
 H         -2.2575055155        2.0031895318       -3.9076572305
 H         -2.3128490692        2.8030367984       -5.2433535145
 O         -0.9590559696       -1.8540039594        2.0295614361
 H         -0.5215086012       -2.5318046330        2.5816178934
 H         -0.3382605824       -1.1009894324        2.0594987039
 O          1.5742838769       -3.7899209490       -2.2324099172
 H          1.7949747127       -2.8616703523       -2.0007168439
 H          2.4087843863       -4.1294815167       -2.5827588096
 O          1.1159608813        0.2385003410       -4.9687979307
 H          0.2364089437       -0.1781297630       -4.8792391423
 H          1.0769947779        1.0954487717       -4.5219001117
 O          5.0713066169        0.8322267302       -4.6991670634
 H          4.4295825782        0.0882475509       -4.5156716198
 H          5.1749842662        0.8612413188       -5.6501714942
 O         -1.8060417342       -3.0160498144       -0.2956840913
 H         -1.7405417613       -2.5047050419        0.5365493237
 H         -2.5741327621       -3.6208882120       -0.2168906306
 O          0.3932106516       -4.5213983490        0.0918558780
 H          0.8349833805       -4.4793767955       -0.7770789987
 H         -0.3886373409       -3.9350811482       -0.0062497379
 O          4.2357296128       -3.5682096715       -2.9655957421
 H          4.5933304907       -2.7779636269       -2.5165028270
 H          4.0767213225       -3.2748538896       -3.8667805993
 O         -3.3646600017       -4.7923367851       -3.0325129918
 H         -2.4864798483       -4.4255322869       -3.2195900241
 H         -3.9779911271       -4.0442673914       -3.1488782106
 O         -3.7966646766       -4.8122084994       -0.4220818639
 H         -4.7053085690       -4.4868251828       -0.4687234143
 H         -3.5720640393       -5.0089099373       -1.3642031986
 O         -0.7036502801       -1.1666797528        5.0943581433
 H         -1.6622687606       -1.2642913409        5.0428382478
 H         -0.3649926300       -2.0053108951        4.7356299979
 O         -3.2424850539       -4.6261346288        2.2899459502
 H         -3.4145758311       -4.8952480223        1.3744085245
 H         -2.3569752702       -4.9674158163        2.4826310592
 O          5.1623551032        4.0420112229       -1.3752616088
 H          5.3953590726        4.9682856043       -1.4390213105
 H          4.9458107468        3.8734008193       -0.4203454821
 O         -4.6966271190        0.0334625146        4.0354542940
 H         -5.5738697250       -0.1536806718        3.6845620047
 H         -4.2081280206       -0.8113605402        4.0353009525
 O          2.0485621051        4.9270386947        0.9552799405
 H          1.4482983749        4.8598098072        0.1893900896
 H          1.4952567374        4.8022772299        1.7329304944
 O         -4.8578710363        4.5878329402       -0.6151048048
 H         -4.0763156126        5.1632845251       -0.6443570082
 H         -4.8080800204        4.0305697529       -1.4112664027
 O          5.1753658582        1.3993885678        4.4510539162
 H          5.8450630139        1.9301495574        3.9715203889
 H          4.4731468431        2.0111701423        4.6964442643
 O          7.4094262881        2.4946041043       -1.5388493125
 H          6.6128357818        3.0545683368       -1.5872321396
 H          7.4374696875        2.1559777197       -0.6325309684
 O         -3.4749861463        1.5066275968       -0.7637491387
 H         -3.8916937100        2.0310537976       -1.4794391987
 H         -4.1110393898        1.4849041906       -0.0313482673
 O          0.1445159495        3.7602891459        2.9694332635
 H         -0.6015752422        4.3845251860        2.8366843694
 H         -0.2538827991        2.9609166593        3.3693970049
 O          5.6459465525       -1.2553010662        1.9797678415
 H          6.0321562937       -1.9700752942        1.4312728720
 H          6.1512415962       -0.4549596579        1.7544921170
 O          5.3358506631       -1.3616483789       -1.7643059597
 H          4.8325205988       -0.6693115169       -1.2918616849
 H          5.9904661780       -0.8654722796       -2.2962213696
 O          6.6588669462        2.7665612880        2.6600639884
 H          6.0018310786        3.3171939810        2.2086560505
 H          6.9236233672        2.0937465658        2.0182109681
 O          4.4687744549        3.6747826579        1.1442384160
 H          3.6627552123        4.2217570465        1.2021343046
 H          4.1847804746        2.7712524069        1.4119587503
 O          6.5920607763       -2.8325964055        0.0395791014
 H          7.5146495149       -2.6093886544       -0.1142669531
 H          6.0980848043       -2.3219356272       -0.6493168423
 O         -3.0300389779       -2.0890723095        3.7278261221
 H         -2.3591782177       -1.8568885686        3.0495090160
 H         -3.2392389731       -3.0124174200        3.5530067769
 O         -4.2242066667        3.6798982531        1.8440420864
 H         -5.0422874878        3.6626177571        2.3422327751
 H         -4.4672447312        3.9631586809        0.9336734689
 O         -5.2590965675       -2.7389894855        1.7203563486
 H         -4.7613980491       -3.4882466680        2.0689852855
 H         -5.6007128331       -2.9997696064        0.8434130506
 O          2.8334674580       -3.6464198005        4.0548106455
 H          2.9906280664       -3.8722904567        3.1231089186
 H          3.3746960944       -2.8723765670        4.2561950461
 O          3.1794794799       -1.5184393735        0.9492382729
 H          3.0062598452       -2.4751750696        1.1252087489
 H          4.0676037715       -1.3433236252        1.3172503344
 O         -4.7396385491        2.8387125421       -2.7029572525
 H         -4.1098679847        2.8779445529       -3.4413792400
 H         -5.2974707533        2.0464365235       -2.8911623508
 O         -2.0143895673        5.2502021721        2.4176565154
 H         -2.8048438409        4.6857692777        2.3988425002
 H         -2.0073922017        5.6831684834        1.5525500577
 O         -1.0324371639       -3.2913298114       -2.9796645619
 H         -1.3374626925       -3.1764423754       -2.0652183206
 H         -0.1090041951       -3.5835389085       -2.9174553754
 O          1.3207468413        2.6201127500       -3.2714086569
 H          1.7367225129        2.4290984350       -2.4039854178
 H          2.0863694076        2.9533716549       -3.7772181945
 O         -2.9149891132       -0.9588375970       -1.9769112756
 H         -2.5870446184       -1.5053404209       -1.2487988733
 H         -3.0824782144       -0.0802352808       -1.5955527438
 O         -5.9076743605        0.5053650142       -3.1166340985
 H         -5.2875743168        0.1819449407       -3.8020301341
 H         -5.6792831686        0.0004311291       -2.3011638316
 O          0.2023701199       -3.4519387486        3.8420879850
 H         -0.0890228501       -4.3296783003        3.5600417675
 H          1.1746239549       -3.5189442813        3.9836519197
 O          8.4590625953       -0.8851770664       -0.9091930187
 H          8.0582658732       -0.6126468934       -1.7546044980
 H          9.3788718734       -0.6228636876       -0.9520020544
 O         -2.2845711398        5.5470226815       -0.3775356226
 H         -2.0708488348        4.6110600321       -0.1610694924
 H         -1.5403924257        5.8495721717       -0.9029408050
 O         -6.1748456445       -3.3818477484       -0.7830868318
 H         -5.7708276213       -2.9787759615       -1.5769374607
 H         -7.0853172608       -3.0759814020       -0.7559089399
 O         -6.8993095065       -0.6396437387        2.2928629313
 H         -6.3416289754       -1.4327142197        2.2055165837
 H         -7.5788264139       -0.7526957447        1.6051636240
 O          2.4394408158        2.5654451276        4.0548161195
 H          1.7028175020        3.1493143618        3.8329065929
 H          2.0565124877        1.7859833530        4.4883029535
 O         -1.1604714558        1.4395893571       -2.8141872349
 H         -1.0726184417        1.0382280335       -1.8943915040
 H         -0.3315107720        1.9037326787       -2.9833294124
 O          3.8786257764        3.2107404297       -3.8683403509
 H          4.3106902340        3.4681968703       -3.0439130529
 H          4.3222099322        2.3950564229       -4.1559775973
 O          1.8183304836       -0.0064413552        4.7917927524
 H          2.6049371211       -0.5788526886        4.7862294989
 H          1.0886287892       -0.4721316107        5.2177553702
 O         -8.1065862613       -1.0291812904       -0.1809044840
 H         -8.4823399598       -0.2368485117       -0.5793094950
 H         -7.1653504787       -1.0067312104       -0.4473471845
 O         -1.3203082600       -0.8606873669       -4.3237594226
 H         -1.3987556779       -0.1921608185       -3.6163049670
 H         -1.2587596007       -1.7257202535       -3.8819726488
 O         -5.5226995119       -0.5826715719       -0.7464011203
 H         -5.6470461360        0.2172314467       -0.1858589633
 H         -4.6836899554       -0.9495886029       -0.4031532565
 O         -3.0994708293        1.2304618129        2.3016065716
 H         -3.5015296670        2.0880482255        2.0741147368
 H         -3.6935301931        0.8554175522        2.9948207346
 O          2.7760419326       -4.0694958094        1.3310602043
 H          3.4384536540       -4.4627245698        0.7210003375
 H          1.8966299421       -4.2771156915        0.9637639558
 O         -0.6191640452       -5.6529440087        2.3576760614
 H         -0.2318118981       -5.3299025326        1.5216552352
 H         -0.3929631612       -6.5803099226        2.4257364364
 O          4.6422350752       -4.8090467871       -0.4292223170
 H          4.4784434318       -4.5753715756       -1.3517639142
 H          5.4260696774       -4.3041787984       -0.1678770300
 O         -0.7753901275        1.3454571797        3.6519464163
 H         -1.6176835934        1.2392058556        3.1706596658
 H         -0.6944829286        0.5719034291        4.2249314981
 O         -7.2853817236        3.2396091779        0.0913388134
 H         -6.6687730612        3.8838768736       -0.2782683427
 H         -7.6502942089        2.7219735921       -0.6448974784
 O         -5.6528463022        1.3730283675        1.0035558583
 H         -6.3058834239        2.0695070809        0.7728717988
 H         -6.0911601165        0.7667023984        1.6342781862
 O          4.4815018223        0.7799402430       -0.4070054658
 H          4.0721053010        0.6910265493        0.4717326778
 H          3.9822375455        1.5069971629       -0.8256211076
 O          3.3526620903       -1.0885170623       -4.2715500182
 H          3.1865196402       -1.1708771176       -3.3182365072
 H          2.5371374778       -0.6899302185       -4.6415674074
 O          0.3413857110        4.4335930741       -1.1722442400
 H          0.5980268417        4.0075926508       -1.9995086134
 H         -0.2221493017        3.7924572841       -0.7032353828
 O          6.9292395345        0.7940031449        0.6522959665
 H          6.0701652914        0.8290661605        0.1720499123
 H          7.4911267359        0.1596127337        0.1704265431
 O          2.0573007243       -1.2540218446       -1.5067286852
 H          2.5142497059       -1.3395017321       -0.6461426222
 H          1.2331414199       -0.7876868070       -1.3149214737
 O         -0.3372094019        0.3017276519       -0.5345891260
 H          0.1032306574        1.0000496048       -0.0162849200
 H         -0.9690404712       -0.1284960901        0.0466094783
 O         -3.4069158697        2.5816469998        4.8954235039
 H         -2.5024197375        2.2578319833        4.8983231517
 H         -3.9807526343        1.8091538225        4.8730380652
