  146
       -243.92560457
 H         -2.3308274118        1.4667012961       -1.1020423280
 C         -1.8868247786        0.8250514620       -0.3420219856
 H         -0.8012211383        0.9475305459       -0.3698752917
 C         -2.2632344861       -0.6324510440       -0.6012010155
 H         -1.8348683295       -1.2605967931        0.1810849371
 H         -1.8697673204       -0.9355988010       -1.5686512085
 N         -3.7032159900       -0.8471522831       -0.5990182785
 H         -4.0746991172       -0.5790188072        0.3046922594
 H         -4.1274289863       -0.2470763197       -1.2960327117
 O         -2.3996678019        1.2677175376        0.8963193824
 H         -2.2770062723        0.5526082189        1.5624305624
 O         -3.3776594073       -3.1092111305        1.8446008767
 H         -2.9038209168       -2.3520010281        2.2363957444
 H         -4.2356694347       -2.7655565062        1.5545473221
 O          5.6594777245        1.7965128763        1.3903441122
 H          6.4902460350        2.2561133502        1.5117370222
 H          5.4097789414        1.9367330476        0.4364871568
 O          3.9557977258        2.6829311461        3.5930011494
 H          4.6649514105        2.4156991559        2.9945380615
 H          3.6373606726        1.8524504526        3.9985646256
 O         -2.0708007859       -4.3844885314       -0.0086325112
 H         -1.9536106045       -5.2715772591        0.3307781934
 H         -2.5130322654       -3.8720670968        0.7265212547
 O         -1.0338949177        4.0801459872       -1.2221874439
 H         -1.9222299141        4.4983424007       -1.1889409657
 H         -0.8256272763        3.8531470914       -0.2905867223
 O          3.8930007094        0.0119914927       -2.6458151924
 H          3.3434529510        0.0145868620       -3.4578622035
 H          4.5890136169       -0.6518636453       -2.7964419025
 O         -0.7416783512       -2.1171341131       -3.3529880054
 H         -1.6861396454       -2.1957650817       -3.5756337844
 H         -0.5461641445       -1.1534934448       -3.3608908418
 O          2.2485984852       -0.0868970155       -4.7753259354
 H          1.9954212560       -1.0653874130       -4.8087876951
 H          2.5170698379        0.1479470246       -5.6629505384
 O          2.8308741543        0.9302813851        1.4841023487
 H          2.8975581019        0.1633242271        0.8868405929
 H          3.6702363432        1.3948576708        1.4332005641
 O         -0.0485446762        0.4772561074       -3.3720848491
 H          0.3952361385        0.6651932121       -2.5173160763
 H          0.6776067102        0.4326825548       -4.0167971797
 O          5.6633365577       -0.9946685344        1.2950577906
 H          5.8588412732       -0.0603678264        1.4591443982
 H          4.8295293963       -0.9856488176        0.7749689710
 O          2.6776831788       -3.6207459167       -0.2050839425
 H          1.7360653912       -3.5613158178       -0.4616782911
 H          2.6793148126       -3.7972552644        0.7585999715
 O         -3.6226273481        4.7238381955       -0.9585118446
 H         -4.0360712609        4.0223506068       -1.4750573767
 H         -3.6355287252        4.4384172430       -0.0236236199
 O         -1.2449118406        0.8899076868        4.4516173897
 H         -0.6629787785        1.1915971066        3.7311897064
 H         -2.0082010548        1.4975709028        4.4605152005
 O          4.4677902653       -2.1156350273        3.4806081699
 H          5.0306646618       -1.7552548630        2.7713571678
 H          3.9962390438       -1.3402413225        3.8553121186
 O          0.8624364615       -0.8509343288        5.0848627786
 H          0.1137024647       -0.2424671255        5.1201541932
 H          0.6419063586       -1.4992880721        4.3839598738
 O          0.6195238166       -1.0021455129        0.5733325870
 H          1.0091660076       -0.3535475248       -0.0362902619
 H          0.4119940050       -1.7815791435        0.0245713917
 O          2.8191067214       -3.8369299339        2.4707351728
 H          2.9475752370       -4.6348292549        2.9826467162
 H          3.4523800465       -3.1600130665        2.8612951786
 O          0.4560530275       -2.4503819894        2.9339946301
 H          0.4559449563       -1.8751694457        2.1562280176
 H          1.2420145109       -3.0092816782        2.8365370624
 O          3.4494622519       -1.0905219386       -0.1763567047
 H          3.1036428663       -2.0118503884       -0.1975838684
 H          3.6085542167       -0.8151684908       -1.0912702933
 O         -3.2544794395        3.6854711094        1.5460385479
 H         -3.0418652795        2.7778638688        1.2363313368
 H         -2.3780164471        4.0681531935        1.6955560895
 O         -0.4864438742        3.6686474936        1.3972124073
 H         -0.4458702361        2.7150805386        1.6139351265
 H          0.3762576758        4.0041646122        1.6746611308
 O         -4.3328143461        2.1907829013       -2.2632615804
 H         -4.7491740849        1.4582639018       -2.7378844410
 H         -3.4689388417        2.3334124609       -2.7186737199
 O         -3.4696199906       -2.2690015954       -3.7868305442
 H         -3.7182977988       -2.8727754420       -4.4871100988
 H         -3.7122726610       -2.7330337255       -2.9183370005
 O          3.0936530576        0.1311158199        4.0789574832
 H          2.8195572335        0.2572540975        3.1527799445
 H          2.2883499095       -0.1840608903        4.5593460786
 O          0.2357300573        1.2018743389        2.1842371811
 H          0.0712830110        0.3527186354        1.7477640895
 H          1.1874199350        1.3446495554        2.0648148132
 O         -5.9301196893       -1.9766388343        1.2146601890
 H         -6.6010806172       -2.6376771996        1.3843093018
 H         -6.2223030614       -1.4853780263        0.4111545377
 O          1.2675290417        5.2334738932       -1.8490005359
 H          0.3567759268        4.9161802172       -1.6419794284
 H          1.3188254522        5.2955111099       -2.8029218659
 O          0.1231962802       -3.1484608187       -0.9819537428
 H         -0.1494044051       -2.8369688991       -1.8665565935
 H         -0.6472274789       -3.6272511075       -0.6182240857
 O          3.2843987988       -3.6239327991       -3.0127793088
 H          4.1140399469       -3.1222013742       -3.0087996146
 H          3.0665807688       -3.7957025071       -2.0890598416
 O          5.5998275167       -2.1070833447       -2.6870896975
 H          6.4083297650       -2.3042266776       -3.1590887185
 H          5.6988486844       -2.5128984194       -1.7841415903
 O          4.8275635519        2.1765632916       -1.0643732615
 H          4.6150447636        1.4401448373       -1.6554410402
 H          3.9832015617        2.6498041505       -0.9092366109
 O          5.7048504480       -3.2543504233       -0.3223293252
 H          4.8151410146       -3.5761135689       -0.1367473735
 H          5.9065826808       -2.5870320992        0.3524562838
 O         -1.9059554038        2.5219993506       -3.3212484774
 H         -1.4881978087        3.0858588682       -2.6460415446
 H         -1.3150833384        1.7596000580       -3.4339293795
 O         -6.7188719171       -0.3805174579       -0.7909164380
 H         -6.4492607318        0.4758682682       -0.4266744215
 H         -6.2851943193       -0.4542039167       -1.6531075541
 O          1.5473599239       -2.5642780322       -4.7889840749
 H          2.1588511989       -3.0440212405       -4.1947525501
 H          0.6826035986       -2.5716552773       -4.3411619711
 O          2.4299672398        3.2501117783       -0.4861525288
 H          2.0746210493        4.0099289822       -0.9952044524
 H          2.3441977325        3.4895678388        0.4568388434
 O         -5.2728899063       -0.2741132821       -3.2865411753
 H         -4.5685782682       -0.9352210947       -3.4666386018
 H         -5.8583688519       -0.2840122445       -4.0444881343
 O         -5.3529516521        1.8791868638        0.2360039569
 H         -5.3746398536        2.7470885092        0.6451519918
 H         -4.8758669270        1.9926634659       -0.6118119119
 O         -5.0398190547        0.2955133230        2.5175517220
 H         -5.0924773024        0.8724685925        1.7360616152
 H         -5.4977910623       -0.5226699608        2.2672753473
 O         -4.1176270493       -3.3103231665       -1.5356668674
 H         -3.4090122525       -3.8355878615       -1.1318746515
 H         -4.0835757724       -2.4369562165       -1.0581362221
 O         -3.5456733940        2.2940121812        3.9738468868
 H         -3.5023019061        2.9184815493        3.2316868056
 H         -4.1917023787        1.6262828419        3.7156789895
 O          1.5091694591        0.8862019115       -1.2451311143
 H          2.3165218547        0.5993742293       -1.6893554002
 H          1.7190126425        1.7792453967       -0.8877778393
 O         -2.5116788357       -0.6914729824        2.7243715908
 H         -2.0006310216       -0.3343709473        3.4824829328
 H         -3.4290259391       -0.3840796364        2.8515543523
 O          2.2235451195        4.0517225510        2.1094947560
 H          2.7882736319        3.4934720601        2.7016472309
 H          2.4937110744        4.9559460744        2.2714503419
