  534
       -906.52201031
 O          1.6575269993        6.2507832041        2.8097377148
 H          1.2089991132        5.4128393567        2.6032528446
 H          1.3262270942        6.5120440139        3.6707936567
 O          2.5399067784        0.4802878416       -3.8324758815
 H          1.8661123671        1.1703267967       -3.9638365006
 H          3.1272781306        0.5321098057       -4.6008462942
 O          1.2276167136       -1.9195648236       -2.8528740673
 H          1.5111116008       -2.1378772571       -1.9495850892
 H          2.0366635437       -1.8597097780       -3.3995446827
 O         -1.9745152813       -4.4110680167        0.4553996513
 H         -2.8378410908       -4.1552029964        0.0744049825
 H         -1.3282009516       -4.3645624192       -0.2670253877
 O         -0.8398049813       -1.7149383145       -1.0248598569
 H         -1.4013288789       -1.3733138110       -0.3041818522
 H         -1.4851556043       -2.0620876473       -1.6678693829
 O         -4.1559945921        7.5899405500        1.8125399716
 H         -3.2686406237        7.2685260490        2.0369999842
 H         -4.7444608792        6.9916020824        2.3058642375
 O          3.1687268709       -2.1268617920       -4.6312440830
 H          3.8074866366       -1.4171783334       -4.4836847772
 H          2.6427235509       -1.9011945692       -5.4287126948
 O          3.3429007997        0.2607576366        1.9766954366
 H          2.4141167096        0.0031692673        2.0652662283
 H          3.7235619720        0.3358461071        2.8762042537
 O         -2.3970944185        6.4802927909       -2.2259722260
 H         -2.5943339228        5.5119784772       -2.1346819918
 H         -1.5589484555        6.5094787789       -2.7173455906
 O          0.9227833686        2.5943825624       -4.0668613908
 H          1.0995236768        3.1789257787       -4.8287468865
 H         -0.0536183558        2.5600613237       -3.9809136020
 O         -5.3929314442        5.4478467606        2.9522291189
 H         -6.3330243366        5.2241579740        2.9321822421
 H         -5.0912674467        5.2805335999        3.8713467784
 O         -0.7752276345       -0.2471720237       -3.6536756135
 H         -0.1086897310       -0.8525255707       -3.2829134589
 H         -1.5146421503       -0.7803257165       -3.9750870461
 O         -0.3598310775        0.0475850997        4.0071980385
 H         -0.4683756683        0.4645118292        4.8901120084
 H         -0.2375862101       -0.9017465071        4.1427324473
 O          2.4120913194       -1.0640644497        4.3818041551
 H          1.6514173581       -1.6197487873        4.1563470954
 H          3.1801838449       -1.4465724612        3.9186849695
 O          0.0778460994       -4.1430736066       -1.2011314940
 H          0.8592785879       -4.2671002707       -1.7693998768
 H         -0.0686597306       -3.1724322711       -1.1174768003
 O          2.6261783094        3.2182080541       -2.1601348543
 H          1.9386151778        3.0407220283       -2.8398512942
 H          2.1520708279        3.5377555781       -1.3730017915
 O         -0.0122688628        3.8608514553       -1.5932730695
 H         -0.3457914933        4.4088463022       -0.8671841389
 H         -0.5827583608        3.0748616843       -1.6270597261
 O         -2.7022103772       -0.7520201430        0.5395531760
 H         -3.1978968458       -1.4454555098        1.0298366489
 H         -2.5131830854       -0.0352967375        1.1679009512
 O         -2.2110802403        1.0657865511        2.4538942736
 H         -3.0291465403        0.7632595808        2.8944984225
 H         -1.4808547716        0.6673669012        2.9778594144
 O         -2.7013327211       -1.9076387816        4.0723901993
 H         -2.2351147750       -1.6920762424        4.8930222258
 H         -2.0399638735       -2.0746921199        3.3643998070
 O          0.1164761527        3.9128859806        2.2983621810
 H         -0.2911755135        4.2896795788        3.0999974684
 H         -0.6150269358        3.7392231841        1.6549653531
 O          2.4170220792        6.3188522046       -4.4350790166
 H          3.1211311239        5.9304021575       -3.8557671085
 H          2.7300142977        7.1770974631       -4.7174108431
 O         -6.5184728510        3.1156098025        0.8992623217
 H         -7.1202884790        3.7550261918        1.3067189146
 H         -5.9537851518        2.8075967145        1.6427242103
 O         -1.0123152570       -2.3480741949        2.0284941453
 H         -0.1201047858       -2.5747348580        2.3198358908
 H         -1.3633753004       -3.1200601125        1.5483181904
 O          6.4170342658        0.5897740585       -0.3983035027
 H          5.9589823808        1.0904004181       -1.0947529690
 H          6.2590081437        1.0624711553        0.4434889603
 O          0.1881511488       -3.5238074077       -4.6439447504
 H          0.9247998329       -4.0821844094       -4.9423484242
 H          0.5503810372       -2.9411385503       -3.9345581241
 O          5.9188053129        1.5524693926        2.0652724576
 H          5.9868623489        0.6929394784        2.5068647505
 H          6.4929959008        2.1602365932        2.5678201662
 O          4.6811551983       -1.3096277816        0.3675600448
 H          5.4036238744       -0.7403098891        0.0445866260
 H          4.1268345693       -0.7279106313        0.9285037080
 O          3.9567626146       -4.0719104084        0.6637924070
 H          4.2208346304       -4.8468794360        0.1204489347
 H          4.7549602539       -3.5257353897        0.7301674934
 O          7.6944223330        0.0126018341       -2.9494595327
 H          7.9348039232        0.9164844278       -2.6745661386
 H          8.2057201254       -0.1481961182       -3.7673347497
 O          5.5064822313        2.5557783845       -4.9216226209
 H          5.1103699302        1.7771633756       -5.3689264523
 H          5.1075553740        3.3325275338       -5.3139575606
 O          3.8555825047        2.1515793481        0.1955406667
 H          3.2764535144        2.9208042017        0.3433207698
 H          3.8131988603        1.5908183129        0.9977820263
 O         -1.5376004140        1.5379750649       -1.6453264871
 H         -1.3427667336        0.9011335832       -2.3509160290
 H         -2.4036812409        1.3043002418       -1.2948843806
 O         -4.1108170017        4.4806103700        0.7727159403
 H         -4.2951196888        5.2173786400        0.1568277653
 H         -4.5526130800        4.7312402248        1.6050348295
 O         -5.4648084282       -0.1016350579        0.8620217198
 H         -4.8360138044        0.5007353873        0.4202512075
 H         -5.6173321574       -0.8846567819        0.3027553778
 O         -3.4537396515        0.7450532131       -4.3307621200
 H         -4.0879341921        1.4774720439       -4.3756174140
 H         -3.5196973068        0.3602086266       -3.4362134674
 O        -10.4103435645        0.1703251550       -1.8015344648
 H        -11.0393160322       -0.4064844189       -2.2358076101
 H        -10.6323248849        0.1332619260       -0.8313365050
 O         -5.0457361177       -3.1249886469        4.7748628646
 H         -5.1708734877       -4.0508327377        4.5401878212
 H         -4.1780669628       -2.8524358108        4.4197619276
 O         -5.1130967424        2.5037980314        3.0495281788
 H         -4.9364226049        1.5523938328        3.1014034865
 H         -5.6987121573        2.6978820327        3.8122528102
 O          6.1436351852        3.4579864064       -0.0342552286
 H          5.3015509757        2.9601813006        0.0520909417
 H          6.2302802128        3.7425119666       -0.9678833451
 O         -3.4175386983        1.0931676924        5.5369271040
 H         -2.9839167848        0.3082606945        5.8793817163
 H         -4.3603974263        0.9720257791        5.6851705596
 O         -0.4204299951        1.2709337169        6.3575810657
 H          0.5570338342        1.2545908631        6.4753314002
 H         -0.7005834368        2.1940570621        6.3373814938
 O          4.4300707860       -2.0916269236       -7.2661574515
 H          4.5181135844       -2.9792951745       -6.8902287996
 H          3.4809264463       -1.9562903501       -7.4083243326
 O         -7.0063467910       -2.0948445234        3.1787680867
 H         -6.8477512290       -2.7209654415        2.4541028333
 H         -6.3623949552       -2.3512842324        3.8631339326
 O         -4.7074646884        4.7915910837        5.4454521628
 H         -5.3746926441        4.1140995330        5.6189654252
 H         -3.8531831762        4.4287265079        5.7328539521
 O         -2.5715471399       -3.0852007518       -2.4805126982
 H         -2.7781551371       -2.5745083154       -3.2921470555
 H         -2.1321847173       -3.9047787423       -2.7738098020
 O          4.5999241126        0.5971960679        4.2561324111
 H          4.4833153358        1.3994510006        4.7912950396
 H          4.9023738444       -0.0901987164        4.8716780685
 O          2.0974193764       -2.2983337394       -0.2817702754
 H          2.7591372964       -2.9661768612       -0.0227328082
 H          1.6296371149       -2.0673299836        0.5352182002
 O          1.0412985636       -5.1332364773        1.0451242077
 H          0.3123047585       -5.6013762197        1.4938765814
 H          0.6556183187       -4.7259164108        0.2331998465
 O         -3.8557586260        5.6451392112       -4.5181867407
 H         -3.0859713440        5.5113328526       -5.1004472507
 H         -3.5109230206        6.1057821190       -3.7383424754
 O          1.7298483609       -1.5877136545       -6.8203724166
 H          1.2689734244       -0.7554004028       -6.5602171575
 H          1.0158631976       -2.1547524783       -7.1423952845
 O          4.3110397397        6.3816501722       -0.3852712575
 H          3.4492672026        6.8198804048       -0.3871451581
 H          4.3770903258        5.9813721870        0.5070266544
 O          0.2340296787        0.4598911479       -6.0275362960
 H         -0.6400804154        0.4114398737       -6.4684274047
 H          0.0230004152        0.3372709623       -5.0769645951
 O          1.6149722759        3.6784465280        5.5225009265
 H          1.6191463497        2.9519342561        4.8653173960
 H          2.5102588903        3.7376527955        5.8599093613
 O          3.8387777802        3.0971771787        2.8991705526
 H          4.5407954254        2.4616699297        2.6797660911
 H          3.0468407206        2.5894877401        3.1276928073
 O          8.2550102621        2.4981261615       -5.2576138173
 H          7.2911315145        2.5488806798       -5.1430882808
 H          8.6372624456        2.7247551561       -4.4038980070
 O         -1.7811507889        3.3394771317        0.5637127105
 H         -2.5792792139        3.8855299187        0.7494641823
 H         -2.0687175877        2.4293271656        0.6888948205
 O          4.2606891390       -2.6346449079       -2.0002857539
 H          4.5940256284       -1.9358623342       -2.5963830189
 H          4.4556921712       -2.2983245327       -1.1069478605
 O         -5.7953696026        1.4071023675       -2.2069300775
 H         -6.5303926140        1.1273953058       -1.6256302141
 H         -5.9841750553        1.0449647357       -3.0872701070
 O          1.4708026406        1.9224630681        3.4733962343
 H          0.9408376733        1.1103450394        3.5790366749
 H          0.9146752368        2.5559552367        2.9841573596
 O         -5.4975664435       -5.5043857617        3.3342200765
 H         -5.7574538872       -6.4093468842        3.1598761082
 H         -5.9380883043       -4.9617532431        2.6503543520
 O         -2.6280458264       -6.9972241201        0.1767031386
 H         -3.5667337981       -7.0267080212        0.4231854260
 H         -2.3648352030       -6.0644463183        0.3495376671
 O         -1.3749478929       -5.2939916094       -3.5043561752
 H         -0.8950432490       -5.8936582114       -2.8947266604
 H         -0.7033680579       -4.6700740899       -3.8667022078
 O          2.0977932001        4.1587446639        0.3776242065
 H          2.0580752648        5.1166219871        0.1903837751
 H          1.3797531406        3.9840255790        0.9990070974
 O          6.1221607298       -5.2085805626        2.7996755097
 H          6.0940829179       -4.5115747409        2.1226002044
 H          5.1998983872       -5.4946799228        2.9405426205
 O         -0.8658883489        5.9925371459       -0.0011711319
 H         -1.4914127565        6.3508315778       -0.6524630044
 H         -1.2833864843        6.0492760122        0.8776428969
 O          5.7721946694       -4.6268130382       -2.9402485872
 H          5.3115367268       -3.8608747578       -2.5202021369
 H          5.3723661702       -4.6865828063       -3.8322006147
 O          4.1769663924        5.1985773179       -2.8234440026
 H          4.2490275488        5.6861441502       -1.9793907189
 H          3.6087803234        4.4148570791       -2.6034794703
 O          9.3836995748        0.0934937341        4.9540752015
 H          9.4119213229        0.5138395629        4.0811152809
 H          9.4002050326       -0.8550160511        4.7959723999
 O          1.4498085917       -5.1076661242        6.6883346637
 H          1.1809164892       -5.2473146343        5.7596157186
 H          2.4087784624       -5.0257469770        6.6438254482
 O          5.2083391021       -0.5931859131       -3.4990346627
 H          4.8211051606        0.2421706015       -3.1780358768
 H          6.1581708676       -0.4835240682       -3.2483538386
 O         -1.7054978949       -1.1214409633        6.5983834519
 H         -1.1131400545       -1.7717952156        7.0016771927
 H         -1.2467706000       -0.2694279900        6.7079027986
 O         -3.9943176457        1.8187633493       -0.2467528331
 H         -4.3117111305        2.6501138449        0.1366420222
 H         -4.5059096380        1.6547772472       -1.0590922055
 O         -3.2745563775        2.7019528295       -6.9781216180
 H         -3.8541440296        2.8116941502       -6.2037354668
 H         -2.7127328908        3.4787162116       -7.0057971021
 O          4.3949365996        2.6679582016        6.0283971126
 H          5.1305372545        2.3736787486        6.5719231963
 H          4.7193236147        3.4756407418        5.5595903455
 O         -7.5477422368        3.1647178639       -4.3930809543
 H         -8.1924491606        2.9303635099       -3.7118131364
 H         -7.3530182779        4.1167516723       -4.2369321570
 O          7.0626529098       -0.9201978329        2.4294651381
 H          6.8261630303       -1.5710771302        1.7424022580
 H          7.7240871104       -1.3876378703        2.9676423556
 O         -3.6621831140       -0.4204473872       -1.9522927913
 H         -4.2499050341       -1.1427131822       -2.2044241153
 H         -3.3417551227       -0.5877311066       -1.0495085305
 O         -4.6469027587        6.7043021089       -0.6235565955
 H         -4.4649465758        7.2136541441        0.2024093900
 H         -3.9654979410        6.9387214084       -1.2624160229
 O          1.2643026611        4.3826864078       -6.0542932950
 H          0.3260864936        4.6267550915       -6.1582839997
 H          1.6963037293        5.1232359199       -5.5988477142
 O          2.4050101280       -4.6057160700       -2.4450666641
 H          3.0785026464       -3.9289702359       -2.2484579507
 H          2.5175936033       -5.3661695304       -1.8352628278
 O          8.8852697742        1.1765775263        2.4515797389
 H          9.0337711533        1.5817175987        1.5807691118
 H          8.2232080840        0.4745439288        2.2992777302
 O         -6.6455776996       -4.1342340370        1.2947398504
 H         -7.5174628146       -4.4752937383        0.9778362143
 H         -6.3842546544       -3.4774096205        0.6152248233
 O         -7.1716539535        5.9377379191        0.1102274266
 H         -7.1674958642        6.4973943212        0.8870431986
 H         -6.3775368218        6.1773063261       -0.3936961256
 O          4.5294958600       -4.2882813712       -5.3199207587
 H          4.0635524385       -3.4915613441       -4.9751878239
 H          3.8219424076       -4.9357806577       -5.4360614742
 O         -7.3830531720        0.6703405187        2.4873296161
 H         -7.4408786521       -0.1864021167        2.9273516337
 H         -6.7287723306        0.5210132249        1.7773815797
 O         -2.9316059385       -4.7309896536        3.0498379775
 H         -2.6219577062       -4.5408217924        3.9598907643
 H         -3.7946577876       -5.1726325294        3.1388342923
 O         -8.3773745575       -3.2603785569       -3.2383379795
 H         -8.1411031673       -2.3514204362       -2.9277163723
 H         -9.2220551712       -3.4432553046       -2.8174716282
 O          0.1412617616       -2.6345545722        4.6646395351
 H          0.3714078290       -2.5844579513        5.6232116215
 H          0.5255321411       -3.4657481246        4.3212704960
 O         -5.6610619317        3.9673269490       -1.6299265149
 H         -5.8053112774        3.0683317989       -1.9980079522
 H         -5.9712338836        3.9272285706       -0.7098696758
 O         -2.2545283056        3.4894241680        5.8033783871
 H         -2.3249080549        3.5460916434        4.8228862232
 H         -2.6733425214        2.6303352050        5.9856840025
 O         -1.9531412484        6.0692686016        2.4835752273
 H         -2.3690039319        5.2010418199        2.6658194485
 H         -1.3892397889        6.2387523258        3.2447598875
 O         -8.5643064403       -1.1388138973        0.2574607489
 H         -8.3227000012       -0.2193884301        0.0266814990
 H         -8.8392187182       -1.1412121348        1.1909730533
 O         -6.1292942559        0.0436715285        5.4070586043
 H         -5.6786135758       -0.1266717086        4.5481872453
 H         -5.6899218179       -0.5440190996        6.0546400115
 O          2.1914596125        0.9106136090        6.3059063862
 H          2.3179312069        0.4218823509        5.4783591088
 H          2.8958358988        1.5665468025        6.3520511726
 O         -9.6454783070        2.6528288357       -2.5106692238
 H         -9.9830380564        1.7517019302       -2.3203744947
 H        -10.3420795963        3.1117258572       -2.9812834327
 O          4.2623465876        5.5620512876        2.2195446164
 H          3.4304293988        5.9898658897        2.4766643865
 H          4.0732271239        4.5982796939        2.3190463042
 O          7.0038278157        5.2096615910        1.7253509253
 H          6.2413927940        5.6661811504        2.0998931615
 H          6.6097535121        4.5665758227        1.0884094476
 O         -0.9109380612       -2.5441341091       -6.9309054469
 H         -0.5806654764       -2.7127184269       -6.0273958760
 H         -1.3942169996       -1.7082028587       -6.9067126279
 O         -2.8606364132       -1.9295549814       -4.7864510823
 H         -3.6951405377       -1.5122610499       -5.0586296780
 H         -2.8067558544       -2.7722910413       -5.2713169738
 O          8.9352803088       -4.3902479560        1.6704938645
 H          9.5916516139       -4.0325961602        1.0142740944
 H          9.0585525088       -5.3390810499        1.6970045312
 O          0.5605481309       -2.6668334769        7.2602236683
 H          0.8119018834       -3.6186689603        7.2532883636
 H          1.3929684172       -2.1977810632        7.4211827986
 O          7.0726164965        6.5104228256       -0.7924921971
 H          7.3298960654        6.2382846687        0.1001453902
 H          6.1285974791        6.7193380964       -0.7298431872
 O         -5.2347450229       -1.2142417399       -5.9781270240
 H         -5.8692897765       -1.9719452497       -5.9277075798
 H         -4.9769279381       -1.1109335580       -6.8944869585
 O          2.2105202568        1.9785920352       -7.0916296139
 H          2.0132081895        2.9051986245       -6.9051132148
 H          1.4370640925        1.4809990609       -6.7669292945
 O          6.8487527517       -2.0839557730       -1.4230860377
 H          7.2896588659       -2.4539207501       -2.2036082022
 H          7.0544948095       -1.1430818485       -1.4396436861
 O         -3.6699728560       -6.2574053800       -2.2868101567
 H         -2.8931309819       -6.0177792428       -2.8120122288
 H         -3.3308200359       -6.8166798724       -1.5689382202
 O          4.9296134269        1.8178959212       -2.3751731740
 H          5.3036899750        2.2165576451       -3.1771950747
 H          4.0964320359        2.2899816948       -2.2010946793
 O          7.8589839312       -3.0366591531       -3.8037673825
 H          7.2381281193       -3.7787924310       -3.7417218875
 H          7.5556105082       -2.5001643212       -4.5564651772
 O          9.8199493507       -1.9159305356       -2.1110019193
 H         10.3214284390       -1.1784322388       -2.5193816472
 H          9.2731973558       -2.2909459905       -2.8151081681
 O         -3.0070243041        3.9468816840       -2.0265021305
 H         -2.6205822962        3.5309735281       -1.2413075996
 H         -3.9804340283        3.9706388736       -1.9003792117
 O          7.1190714353        1.2894812804        5.8267599326
 H          7.9992776273        0.8898368492        5.6906754578
 H          7.0480959650        1.9574613447        5.1367891300
 O          2.2456663899       -6.6799296035       -0.7601253276
 H          3.1966965325       -6.8393068118       -0.6705453346
 H          1.9615760818       -6.2120623917        0.0537149113
 O         10.6275878353       -1.0496333343        1.7549834930
 H          9.9998292904       -0.6618706436        1.0934777146
 H         11.2313742853       -0.3473338484        1.9942490184
 O         -4.3038553148       -4.0773864533       -0.8202476714
 H         -4.2192422851       -4.9648639223       -1.2231567810
 H         -3.8507088031       -3.4924723789       -1.4639181101
 O          4.8599389291       -6.1065987479       -0.7931170204
 H          5.2246076940       -5.7466988216       -1.6198741294
 H          5.6257963772       -6.4678944144       -0.2867040122
 O          3.1397804553       -1.9020332840        6.8002060234
 H          2.8187023839       -1.4681959417        5.9766606394
 H          3.9878209969       -1.4822373484        6.9863943984
 O         -9.5604169442        2.0158726526        1.7932439618
 H         -8.7196185809        1.5188633460        1.9521220524
 H         -9.3703436116        2.7254905497        1.1571957061
 O          6.6582172726       -1.4460482027       -5.7240164140
 H          6.1088753115       -1.7240309682       -6.4653360413
 H          6.0567008726       -1.0292113583       -5.0850086640
 O         -0.1000378935        5.7841481866       -3.4321347790
 H          0.7963860950        6.0569161968       -3.6729061269
 H         -0.0104631961        5.0149532665       -2.8184912230
 O         -1.4178330252        4.9053699528       -5.6022700477
 H         -0.9802378805        5.3876961277       -4.8703872963
 H         -1.5741057248        4.0168945033       -5.2053326355
 O          5.6738309688       -1.0231883248        6.1260840017
 H          6.2958720739       -0.2764675284        6.1870292955
 H          6.1376522152       -1.7630427927        5.7167055992
 O          2.0820846739       -5.4820792016       -4.9014610107
 H          2.2541484790       -5.2013588929       -3.9682143406
 H          1.7458968466       -6.3767698615       -4.8612545472
 O         -1.7216887121        2.7509964660       -4.1332482133
 H         -2.1527244931        3.1556464711       -3.3571759945
 H         -2.2165853648        1.9222841398       -4.2991445553
 O         -1.9243392490       -4.2739720737        5.4835974068
 H         -1.4721358615       -4.9321108529        6.0109981549
 H         -1.2509634905       -3.6274092634        5.1998653103
 O        -11.0928235244        0.0993344644        0.7414130722
 H        -10.6548779356        0.8881719597        1.1308447437
 H        -10.8798260782       -0.6132761278        1.3547989285
 O         10.7714319463        0.3274036690       -3.2316670770
 H         10.4134830385        0.1875877780       -4.1202305484
 H         10.3041088474        1.0873969047       -2.8700186055
 O         10.6848172211       -3.2739498782        0.0790974206
 H         10.4161693931       -2.8418507862       -0.7525534166
 H         10.9320876590       -2.5472483238        0.6700897107
 O          9.0850575314       -2.4008082272        3.4870569916
 H          9.0351051242       -3.2395452088        2.9889964091
 H          9.7327484331       -1.8843751607        2.9615012667
 O          8.9904385627       -0.0622059284       -5.3090628153
 H          8.3295288281       -0.5909641187       -5.7759008571
 H          8.7741442909        0.8782696491       -5.4916921110
 O         -8.8365793433        0.0070705656        5.1771743493
 H         -7.8568916070       -0.0454497618        5.2152800395
 H         -9.1624579027       -0.3869780233        5.9857096718
 O         -4.5096847420       -0.1718370515        3.2832344031
 H         -3.9038554368       -0.8939763739        3.5573630000
 H         -4.8835056845       -0.4263936921        2.4100319553
 O          3.4194707651       -5.2553645921        3.1066331416
 H          3.6000164817       -4.6780657106        3.8732514075
 H          3.4803414223       -4.7304444754        2.2853050222
 O          0.8831256383       -5.1706761243        4.0570100701
 H          0.2521187794       -5.7423592880        3.6007930943
 H          1.7584792506       -5.3340160366        3.6475606247
 O         -6.7767756191       -5.0025436745       -1.8788696532
 H         -6.0894836007       -4.4370078500       -1.4961564201
 H         -7.2723616239       -4.4392994296       -2.5001375461
 O         -4.1179528629       -2.6686005895        1.6717510991
 H         -3.6139045724       -3.3483233387        2.1523568666
 H         -4.4533544305       -3.0870449296        0.8717002551
 O          3.9381583366       -4.0943223899        5.5215611240
 H          3.6103149044       -3.3080181334        6.0150456522
 H          4.8954405377       -4.0454473186        5.5657241187
 O         -0.9474255522       -6.3822421415        2.3895310843
 H         -1.3421894248       -7.0700619738        1.8441735803
 H         -1.6691715537       -5.7290754021        2.5511730838
 O         -0.3271437516        5.2546495227        4.6582557230
 H         -1.0478252017        5.0054444640        5.2467912699
 H          0.4495270698        4.7839835933        5.0314418211
 O         -7.8215261689        1.3323071488       -0.4855599614
 H         -7.3318631973        1.9535567064        0.1119257331
 H         -8.4871240521        1.8599447662       -0.9305298513
 O          8.7167101985        2.8836605848        0.3255173420
 H          7.7388359693        2.9756994611        0.2607857617
 H          9.0591363324        3.7581398795        0.5118096891
 O         -6.5947061809        2.7248605656        5.2373153684
 H         -7.5303249678        2.8242761294        4.9851504198
 H         -6.4869992471        1.7842672631        5.4605984377
 O         -5.3473645794       -6.4946511154        0.4277859166
 H         -5.6947066851       -5.6262638994        0.6959857694
 H         -5.7849349579       -6.6915781822       -0.4036118838
 O         -6.6050099701        5.5353192878       -3.6383943897
 H         -6.2798802733        5.1526062106       -2.8018184114
 H         -5.8181800097        5.8176828614       -4.1172329197
 O          6.6230140880       -3.1694516751        0.9594320732
 H          7.4730983230       -3.6242163605        1.1106539118
 H          6.6924592271       -2.8407834425        0.0342763620
 O          5.4511983503        4.7344872650        4.7669444016
 H          6.2528700004        4.3016841713        4.4475685809
 H          4.9837155333        5.0556956898        3.9831200421
 O          9.0573201724       -0.1259033616       -0.1463611953
 H          8.1301761136        0.1489802038       -0.2319697455
 H          9.2367164163       -0.7413848034       -0.8771453499
 O         -9.1114978261        4.0179852089       -0.0692683176
 H         -8.4459504621        4.7260442172       -0.1134422231
 H         -9.3328179265        3.7952566382       -0.9805968152
 O        -10.1892364747       -2.8098005719       -1.0381300955
 H         -9.5927217627       -2.1473976053       -0.6178260615
 H        -11.0095358987       -2.7797532667       -0.5459398808
 O          6.7324976907        4.4294487043       -2.4391111762
 H          7.0429293569        5.2456291150       -1.9922710051
 H          5.8683489510        4.6652366461       -2.8250941034
 O         -9.1895908747        2.6392484202        4.3812756677
 H         -9.4938436324        2.4569581906        3.4686771386
 H         -9.1958247387        1.7594484379        4.7929110450
 O          6.6005936554       -3.2312767746        4.5606375764
 H          7.5080549723       -2.9406328266        4.4073191278
 H          6.5171018222       -4.0641090185        4.0461243238
 O          1.6676799024       -2.9013848495        2.3339082137
 H          2.6153626514       -2.8103069949        2.4859595518
 H          1.5311946270       -3.7819130808        1.9244666577
 O          7.0144016156       -6.6968214995        0.6189116336
 H          7.5253560950       -6.0420092447        0.1123607352
 H          6.8339121956       -6.3080619874        1.4902651109
 O         -8.0533727464        4.6277528277        2.6923281681
 H         -8.8168778593        4.9115973738        2.1854597855
 H         -8.3866711201        4.0699079640        3.4097847729
 O          7.9783142902       -4.7741756628       -1.0685295945
 H          8.8061983405       -4.4607034950       -1.4345590624
 H          7.3194704662       -4.7513058261       -1.7736617378
 O         -5.3914504067       -2.2438636762       -3.0600423533
 H         -5.8674681453       -1.7129933943       -3.7006688470
 H         -5.2039001800       -3.1078124106       -3.4789827041
 O         -8.7397837372       -4.9736592229       -0.0234714807
 H         -9.3187917486       -4.2741931453       -0.3677053704
 H         -8.1249788573       -5.1856909972       -0.7549901558
 O         -4.8926257230       -4.6062615299       -4.2494945364
 H         -4.1519279441       -4.6594002335       -4.8695646532
 H         -4.7990842758       -5.3283999176       -3.6146587461
 O         -4.7740606682        3.0741014771       -4.6536063493
 H         -5.7396011634        3.1097402977       -4.5963298664
 H         -4.4545429459        3.9799931850       -4.4824084429
 O         -7.9088314080       -0.7807638322       -2.5086820024
 H         -7.6402438182       -0.2816984031       -3.2938231708
 H         -8.7591307540       -0.4218101342       -2.2100598153
 O         -2.3051496353        0.1558266227       -6.7643546992
 H         -2.6050167779        1.0103371779       -7.1182603478
 H         -2.6889749787        0.1456243335       -5.8691398816
 O         -6.8798318827       -3.2422278894       -5.5675861326
 H         -7.5763260163       -3.2209062617       -4.8922393887
 H         -6.2801539070       -3.9465973295       -5.2781779814
 O         -6.7278491544        0.5218658471       -4.5790712509
 H         -7.0111515561        1.3787378565       -4.9216095216
 H         -6.1308453913        0.0933486129       -5.2186827034
 O         -4.5419106741       -1.5183550684        6.9065001463
 H         -3.5800109395       -1.4715186599        6.9854035420
 H         -4.7249073483       -2.2941985126        6.3516912548
 O          1.6561898964        6.8202167797        0.1134766314
 H          1.6820633643        6.9839189662        1.0664438280
 H          0.7141112212        6.6295587726       -0.0805769936
 O         -2.6378416888       -4.4350171194       -5.8733393647
 H         -2.0847307779       -4.9320813286       -5.2540647437
 H         -2.0448641442       -4.0621723053       -6.5464956624
 O          4.1427134598        0.5473308021       -6.0541077356
 H          3.4742063883        1.0785465263       -6.5526659845
 H          4.3527770704       -0.2164455735       -6.6063726786
 O          8.6418427322        2.4649640967       -2.3746921427
 H          8.8706084624        2.4584897270       -1.4281496828
 H          7.9708171548        3.1626373958       -2.4686818005
 O         -2.6978883260        3.5714885200        3.2039349802
 H         -3.6648388442        3.4122346661        3.1961331098
 H         -2.3414355447        2.7152244149        2.8858854015
 O          7.4844909738        3.2162357821        3.4941523536
 H          8.2180694822        2.6138367549        3.2570541495
 H          7.5288506185        3.9811476159        2.8845713979
 O         -6.2790458518       -2.2261561387       -0.5221657890
 H         -6.0845351705       -2.1885786011       -1.4752145171
 H         -7.1760478461       -1.8579187383       -0.3941214625
 O         -9.5780303968       -1.3554660924        2.7987720666
 H         -8.8055728701       -1.8989040867        3.0330053722
 H         -9.6057299504       -0.6885522013        3.4989627416
 O         -0.3494966797       -7.0360132143       -1.7655228828
 H          0.5542767321       -7.0131659537       -1.4196158069
 H         -0.9411106242       -7.2232022648       -1.0294251123
 O          4.3955490598       -2.3614339459        3.0418826202
 H          4.7431365105       -1.9983098779        2.2147925017
 H          5.1590028343       -2.5429906662        3.6116491816
 O          1.5448707009        0.9212865366       -0.8010830582
 H          2.4266472648        1.2573505601       -0.5895423887
 H          1.6171427069        0.4685421102       -1.6427488609
 O          0.7605680499       -0.2296612101        1.4631225906
 H         -0.0056529041       -0.7923278053        1.3379139662
 H          0.9500869526        0.1723424311        0.5885341237
 O         11.6714039785        0.9054477862        0.1559971902
 H         12.1369783437        0.4420462829       -0.5406854160
 H         10.7278623239        0.7940274974       -0.0343200360
