  309
       -524.49052409
 O          0.3632987150       -2.6014951345        1.5375511933
 H          0.1902980687       -3.3441397858        2.1516319855
 H          1.2940348599       -2.3686845991        1.7162404975
 O          4.5651944155       -0.7879114792        5.9323865727
 H          4.3264104802       -1.6256340882        5.4900588076
 H          3.7516281103       -0.5600991094        6.4198374897
 O          0.7927366378        4.2249012458       -0.4902931439
 H          0.1627630414        4.4523197807        0.2084416188
 H          0.4066147166        4.5633242929       -1.3296438797
 O         -2.7973877019        5.0601790846        0.1574133731
 H         -2.5740968317        4.3143453517       -0.4402712087
 H         -3.6820124345        4.9014928116        0.5166200862
 O          3.5767813772        0.7084607428        1.0639221541
 H          3.4249593539       -0.0653361590        0.5000223828
 H          3.4445320396        1.4674671850        0.4624111144
 O         -0.6655562780        1.7642197009        4.8789157672
 H          0.2570521753        1.8319357349        5.1518741345
 H         -0.7046070787        0.9639387134        4.2882210711
 O          1.9634988434       -0.3532973205        6.5105218327
 H          1.9005127798        0.4865757442        6.0378429298
 H          1.6269080416       -1.0445328607        5.9266250935
 O          5.9269005387        0.3842428734        2.3046571213
 H          5.1012200448        0.4804774211        1.7808248793
 H          5.9529242936       -0.5165204240        2.6640308640
 O         -0.7110320110       -0.5237828025        3.6030207435
 H          0.2413435007       -0.5931124267        3.4282844819
 H         -0.9304319986       -1.1361296235        4.3287484780
 O         -2.3260410764       -1.9169640809       -3.2305810764
 H         -1.8016684047       -1.1087776367       -3.4106316352
 H         -1.9162337781       -2.6319569586       -3.7539916648
 O          4.5487790577       -5.7843643785       -2.1137586565
 H          5.4486525742       -5.4404540773       -2.2027814924
 H          4.3723087526       -5.8256747883       -1.1530819037
 O          2.1211241888       -1.0872905924       -0.3987492678
 H          1.8668387493       -1.0183306728       -1.3344762898
 H          1.5396586403       -0.4396466179        0.0351439729
 O          5.3616747198        0.8788610921       -1.0157637868
 H          5.4379775495        1.2412996777       -1.9193459705
 H          6.1081302141        0.2801967725       -0.8721786588
 O         -2.7656954978       -4.3465162663       -1.3691015614
 H         -2.0144969884       -3.7291322670       -1.2978222730
 H         -2.9079713381       -4.5238990264       -2.3117726518
 O         -5.1843216891        1.0303565189        0.7858210706
 H         -5.3711002176        0.0724469687        0.7571378677
 H         -5.4564505277        1.3730173350       -0.0821132820
 O         -3.6293705601        4.8183096900       -3.0305212886
 H         -3.2507225545        5.6792987879       -3.2210239771
 H         -3.7852684652        4.3474668036       -3.8672187228
 O         -4.5898048921       -1.0536859842       -4.3354526984
 H         -3.7468246916       -1.3289355342       -3.9040420837
 H         -5.1900940075       -1.7806414336       -4.1225274302
 O          0.4690822976       -0.8760400382       -2.5487453510
 H          0.3675363231        0.0869942962       -2.5176767939
 H          0.4056097277       -1.1250381811       -3.4904710656
 O         -0.1567669026        5.2842299130       -2.7505932410
 H         -0.6692162889        4.7735273517       -3.3983185891
 H         -0.7557472506        5.9836317889       -2.3982982356
 O          0.3582379674        1.9548178763       -2.2933780257
 H         -0.4560258116        2.4759902546       -2.1614456485
 H          1.0281887714        2.5720132363       -2.6383875228
 O          2.9750048641        2.5554442959       -0.7622100473
 H          3.6049489572        3.2200523151       -1.0882480124
 H          2.1416044140        3.0363924986       -0.6385906866
 O          5.7850686542        2.1264000172       -3.3870270177
 H          6.6021347895        1.5987926048       -3.5139983737
 H          6.0767005707        2.9694789244       -2.9992595913
 O         -3.1739356319       -1.2177972924       -0.8014568043
 H         -2.9425426682       -1.7288373317       -1.5988288923
 H         -4.0928624821       -1.4449244001       -0.5278391972
 O         -2.2559739990       -2.1483352439        1.4938505099
 H         -1.2875240696       -2.0965064193        1.5616206018
 H         -2.5090273451       -1.8368761811        0.6000958646
 O          6.9521370678       -4.3276501838       -2.0659632195
 H          6.8885569975       -3.4299075259       -2.4710191690
 H          7.8662811629       -4.5968486021       -2.1550556651
 O         -7.4044373772       -1.8552310492       -1.6945655449
 H         -7.8683490176       -2.6463333444       -1.3039167712
 H         -6.8948950294       -2.2014703842       -2.4378707730
 O         -3.6770284529        3.4412511725        3.2658962161
 H         -2.9198618440        3.8941626149        3.6574865836
 H         -3.2809080005        2.6546334940        2.7574721776
 O         -2.7544445625       -4.5128452488        2.5789130972
 H         -2.5644474634       -5.1941062599        1.8829576008
 H         -2.5601194196       -3.6504813886        2.1457869126
 O          6.1887173799       -1.9294855308        3.7822613297
 H          5.4890052345       -2.5794726956        3.9363785125
 H          6.2866393112       -1.4631526619        4.6184199199
 O          3.7564815098       -3.0873408148        4.6496363825
 H          2.9523164854       -3.2089192926        5.1672800258
 H          3.4177373163       -2.8569947389        3.7546431151
 O          1.5880862486        2.8819371760        2.0462347137
 H          1.3040181959        2.2349727237        1.3722479993
 H          1.1214396008        3.7023013229        1.8724895845
 O         -5.3035297574       -3.7133885285        1.8808862973
 H         -5.8240159010       -3.5390427512        2.6933565819
 H         -4.4535905734       -4.0862154626        2.1755698002
 O          4.4195857520       -1.6268931088       -2.0112429129
 H          3.9402578457       -0.7778573498       -2.1762585491
 H          4.5330787171       -1.6882685187       -1.0359510034
 O         -3.4211625587       -4.9007009561       -4.0281291565
 H         -3.4606299149       -5.8234039985       -4.2780203719
 H         -2.6301300768       -4.5213068998       -4.4576905951
 O          4.9521919361       -1.8754374640        0.5777353821
 H          5.6885575546       -1.2474431066        0.5214983752
 H          5.3838861737       -2.7567772318        0.6344605795
 O          3.2535050294        5.8076823253        2.6705803189
 H          3.6991829154        4.9250754903        2.5935040023
 H          3.8880777899        6.4100197531        3.0571865523
 O         -6.8708149565        2.4824112916        2.2664444856
 H         -6.1813906574        1.9527780518        1.7968240840
 H         -6.6205893586        2.4647795955        3.1960110989
 O         -5.3359905881        1.8012786491        4.6495722427
 H         -4.7733373540        2.4527392981        4.1839997941
 H         -4.7226332194        1.3482812350        5.2521031504
 O         -5.5511447142       -1.5649241654        0.2566785367
 H         -6.2749321183       -1.7133641945       -0.3830387482
 H         -5.5444901567       -2.3133574442        0.8848332957
 O          0.5252079278       -4.6471640549       -2.7451800048
 H          0.1495244255       -4.0654652749       -2.0417064374
 H          1.3802765649       -4.2537597850       -2.9802891854
 O          0.1268429186        7.4523790466        0.2994071608
 H         -0.1120401696        6.7688171697        0.9414747584
 H          1.0467829601        7.2702777616        0.0555116242
 O          2.8991002664       -2.1713136806        2.3243108390
 H          3.6186979126       -2.0058739260        1.6901243210
 H          2.6288989640       -1.3082205606        2.6993899585
 O          2.6100180548        6.1433286606        0.0072583198
 H          1.9705604863        5.4150060995       -0.1597333382
 H          2.8397911454        6.0858670461        0.9500283334
 O         -3.4634723811        1.0984338129       -2.0101259354
 H         -3.3463430407        0.2668209672       -1.4930436698
 H         -4.3992154949        1.3309116082       -1.9544845340
 O          5.8122720777        3.0948878610        0.3338432788
 H          5.1836349512        3.2300784657        1.0664429812
 H          5.5591020086        2.2372768818       -0.0932973708
 O         -5.7689823925        1.3880990432       -4.2731577989
 H         -5.3793002053        0.4913409455       -4.2757120136
 H         -5.9775750045        1.5818748918       -3.3398547810
 O          6.2226491797       -4.2132694769        0.5718490590
 H          6.4929116933       -4.2801941967       -0.3628030353
 H          5.4971172372       -4.8452379186        0.7059580931
 O         -1.5369915849        0.5542171725       -3.8906307734
 H         -2.1744272459        0.9063601259       -3.2508055276
 H         -1.9997882627        0.5496178172       -4.7483997968
 O          3.9155721968       -5.5992800983        0.5410851745
 H          3.3873355253       -6.2553555344        0.9975324931
 H          3.3083257771       -4.8362739044        0.3684425687
 O          2.0823700919        3.8909602932       -3.3064788086
 H          2.8235929344        4.2645706536       -2.7978120584
 H          1.3956252685        4.5729061907       -3.3178037510
 O          7.9510267267        0.5804991822       -3.2076382411
 H          7.6510889862       -0.3379533031       -3.1096881891
 H          8.4091408510        0.8126723484       -2.3874717098
 O         -1.0792525197       -3.8164324799       -4.7091852941
 H         -0.4936823762       -4.2527217340       -4.0536611154
 H         -0.5449901594       -3.0793219465       -5.0749210484
 O          0.5016553396        1.8210396902       -5.2729386313
 H          1.4624852469        1.7924806038       -5.2071857219
 H          0.1364167510        1.3312289631       -4.5152371023
 O         -0.1033531912       -4.6315746063        3.2278120097
 H         -1.0787319636       -4.6929260321        3.1906444737
 H          0.2335310018       -5.3056157467        2.6224870290
 O         -1.9717652086       -6.0409465357        0.6138547193
 H         -2.2577074383       -5.5402941975       -0.1706760920
 H         -0.9992745998       -5.9869943531        0.6369042198
 O         -3.0878151433        0.5009003605        5.6816775800
 H         -2.3184348563        1.0653050492        5.5304912071
 H         -3.2027377234       -0.0238660592        4.8674617942
 O         -6.4318255767       -2.9508089684        4.1863404917
 H         -6.3680961341       -1.9882430458        4.0264823303
 H         -5.6586323746       -3.1759890722        4.7279891696
 O          4.7986884127        1.4916179374        4.4853784387
 H          4.7864725220        0.7288362456        5.0994472186
 H          5.2972116392        1.1574323408        3.7100166427
 O          2.9807208391       -1.6700069747       -4.8101491339
 H          3.0234994769       -2.4927483093       -4.3014569325
 H          2.9996687517       -0.9541066105       -4.1646265819
 O         -8.2699843156       -3.9916916543       -0.4981412140
 H         -7.4527701736       -4.5027992654       -0.5423532923
 H         -8.3282176564       -3.6392735357        0.4091457893
 O         -1.2051050028        4.2483315648        4.3026616638
 H         -1.3733234193        4.6406937427        5.1601745811
 H         -1.0243746579        3.2811517531        4.4699774087
 O          0.9626292045       -2.6935351336        5.0483239103
 H          0.7231780973       -3.3992263136        4.4317709135
 H          0.1595700387       -2.5328706821        5.5637209852
 O         -8.2153186454       -2.6410856508        1.8690433422
 H         -8.3460099296       -1.6847751312        1.8577663416
 H         -7.8822056604       -2.8695343373        2.7422318114
 O         -0.6294808909        5.0718635712        1.6900400362
 H         -1.4892662254        5.1265982015        1.2150505184
 H         -0.8532282334        4.8549409167        2.6040670300
 O         -1.5635877437       -1.9032564085        5.8420206050
 H         -2.0070869922       -1.1197505914        6.1970679259
 H         -2.2813989886       -2.5390977792        5.6591907111
 O          1.8898974650        0.1549550157        3.0605860120
 H          2.3672439605        0.5280609375        2.2941822914
 H          1.9495862315        0.8454416794        3.7451720039
 O         -1.8144154787        6.9667125211       -1.5680709474
 H         -1.1520064600        7.3842408279       -0.9854276488
 H         -2.3215800298        6.3909419488       -0.9695963531
 O         -1.9760991724        3.2086736738       -1.6005950665
 H         -2.3175249378        3.7752708180       -2.3132418063
 H         -2.5334376027        2.4007210075       -1.6404393990
 O         -5.4341227926       -4.5402586441       -0.6870994351
 H         -4.4811361190       -4.6049935113       -0.8576268096
 H         -5.4909500483       -4.3258650422        0.2601512036
 O          1.6036183349        4.6276241258        4.5761554182
 H          2.0967189392        5.1092029757        3.8923051869
 H          0.6737458424        4.6437223499        4.3158170727
 O          6.6875241224       -1.9285573010       -3.2427674577
 H          5.8523055435       -1.7151488128       -2.7442764757
 H          6.4374575565       -1.9635166301       -4.1676283526
 O          0.3359230733       -1.6252827018       -5.1599029963
 H          0.0022466739       -1.0672051922       -5.8994749693
 H          1.3075841604       -1.6700624619       -5.2651262558
 O         -6.1504747676       -0.4137528124        3.2973361641
 H         -6.8609054499       -0.2259023990        2.6599296605
 H         -5.9921768424        0.3995431402        3.8172292824
 O          7.9749203198        2.0264665207        1.4525858349
 H          7.2630154651        2.5967665411        1.0917960604
 H          7.4784406038        1.3006352304        1.8647846912
 O         -5.8373481557        4.4437914458       -1.3852119901
 H         -5.6292739678        4.6074865407       -0.4522608905
 H         -5.0487541757        4.6789308617       -1.9016217302
 O          9.1382967469        1.1668980769       -0.7057821303
 H         10.0744676102        1.0850509534       -0.5284203796
 H          8.7297701385        1.5525305502        0.1246965169
 O          4.0973678923        4.8087463700       -1.7725248714
 H          3.7338726940        5.4618056931       -1.1398695415
 H          5.0347814090        4.9784706223       -1.8991065107
 O          6.8102454695        4.2057360391       -1.8650084428
 H          7.7637783293        4.1212246106       -1.8500487485
 H          6.4877596357        3.8537704918       -1.0052230933
 O          3.0858358654       -3.6982664449       -2.8790351702
 H          3.6440704284       -4.4977675792       -2.7684223748
 H          3.6192032162       -2.9379100894       -2.5331021833
 O          3.3752849522        2.0413862275       -4.7363130301
 H          2.9644490579        2.8418233244       -4.3607071776
 H          4.3186156561        2.1094854784       -4.5178758591
 O         -3.5791428193       -1.0295843955        3.4691699612
 H         -4.4879592389       -0.8237839609        3.1856646337
 H         -3.0892455382       -1.3873975073        2.6971895831
 O          2.9519584261        0.4758645327       -2.6280596474
 H          2.9720583846        1.1235520013       -1.9015300867
 H          3.1104552249        1.0032605736       -3.4382682886
 O          8.0384339323       -2.5138731678        1.7678001418
 H          7.5647413024       -2.2576589413        2.5724055220
 H          7.5723096269       -3.2982351118        1.4448456016
 O          1.6833961360       -6.8055355068       -1.5164793115
 H          2.5710464201       -6.8034790701       -1.8828666961
 H          1.1731164044       -6.1571917445       -2.0378002211
 O         -1.3891727692        3.6837500993       -4.5569044107
 H         -2.2125249006        3.3514779175       -4.9274273104
 H         -0.6768931897        3.1181335884       -4.9011961308
 O         -5.2168340900        4.4722692749        1.3379451573
 H         -6.0354452833        3.9835588119        1.5246188132
 H         -4.6358503089        4.2013717176        2.0818839679
 O         -0.5478209418        0.0316657751       -7.0356828862
 H         -1.5014611489        0.1480944489       -6.9425631882
 H         -0.1383143461        0.8051252608       -6.6055281424
 O         -4.1320072747        3.1346800178       -5.2241840286
 H         -4.7812984237        2.4948913299       -4.7955653745
 H         -4.6279690287        3.5925963963       -5.9029268995
 O         -5.6023538009       -3.3506286549       -3.1595004538
 H         -4.9404683253       -3.8721794843       -3.6339350597
 H         -5.6278989034       -3.7607629704       -2.2744175504
 O         -3.7302572927       -3.2686953970        4.8866759414
 H         -3.4076759868       -3.9350615826        4.2656085233
 H         -3.7189770859       -2.4205561599        4.3805053161
 O          4.1395340721        3.3526952725        2.4500474904
 H          4.4321843391        2.8582080708        3.2270902800
 H          3.2168307292        3.0494792348        2.2642841092
 O         -8.2436968528        0.2294399817        1.6304601456
 H         -8.2966485631        0.2745257747        0.6616841538
 H         -8.0663344224        1.1459822740        1.9097496929
 O         -3.1464436437        0.5698317613       -6.0682477333
 H         -3.5370988201        1.4462872881       -5.9475492760
 H         -3.7716562505       -0.0721246525       -5.6942478444
 O         -8.3820269081        0.5207950485       -1.1308043491
 H         -9.2571412629        0.5999791076       -1.5094724939
 H         -8.0381337770       -0.3653681503       -1.3943850907
 O         -0.4945334420       -2.8824318461       -1.0344185813
 H         -0.2400112643       -2.0794923523       -1.5303432823
 H         -0.1096444604       -2.8032486092       -0.1400745647
 O          2.2633045905       -3.7282372941       -0.2737084802
 H          2.2514936115       -2.7606831730       -0.1222110652
 H          2.4279531393       -3.8273719706       -1.2268816864
 O          7.3716180952       -0.8831202621       -0.2652027483
 H          7.7155257431       -1.4534715698        0.4540866676
 H          8.0818371149       -0.2502213385       -0.4511989409
 O         -6.0971658323        1.8732383302       -1.6395498252
 H         -6.1041585481        2.8648757426       -1.5493648875
 H         -6.9950499796        1.5424207204       -1.4563392333
 O          2.1764276661        2.0309139202        4.9821246520
 H          3.1447718542        1.9264840031        4.9103697835
 H          2.0102724482        2.9885613255        4.8434158910
 O          0.7618745943       -5.7406892761        0.8020932544
 H          1.0463892335       -6.3422716508        0.0911894321
 H          1.1016283873       -4.8721902584        0.5199994895
 O          0.4951103877        1.0583165138        0.2635894131
 H         -0.3894825528        0.9277457222        0.6126646092
 H          0.4284606000        1.3938297391       -0.6561294969
 O         -2.6650010289        1.7577947202        1.3525674431
 H         -3.5192823824        1.3156746473        1.1804777656
 H         -2.4449378243        2.2409341782        0.5534182217
 O          5.4693828817       -2.7844918139       -5.5014321012
 H          4.6172729325       -2.3216583599       -5.5138297234
 H          5.2966846158       -3.6991852422       -5.2700572328
