  611
      -1033.54528513
 H          0.9357604928        1.1150195968        0.2272034855
 C          0.1444057543        1.3991739980        0.9148383696
 H          0.5809275937        1.8663518598        1.7920735572
 C         -0.6220001443        0.1403458334        1.3178099819
 H         -1.4234692223        0.3830378646        2.0101346488
 H          0.0760569914       -0.5246970809        1.8161367723
 N         -1.2133940183       -0.5591305413        0.1845898884
 H         -1.9386564420        0.0158714318       -0.2252019164
 H         -0.5081495995       -0.7389165873       -0.5211666043
 O         -0.6791352594        2.3833981289        0.3035535519
 H         -1.0096685740        2.0301141101       -0.5514560360
 O         -0.4708353556       -3.3582037601       -1.6468254516
 H         -0.3734015075       -3.0694942961       -0.7254695892
 H         -1.0177553316       -2.6942059707       -2.1100087299
 O          0.7617189755       -0.5299515354       -2.0889410554
 H          1.3205595063        0.2676342444       -2.0238981709
 H          0.7341884756       -0.7882155053       -3.0279169322
 O          6.8407235555       -2.2910621284       -2.3984133590
 H          7.3735018079       -1.9973472033       -1.6162026737
 H          5.9551241054       -2.5750005296       -2.0901813645
 O          0.4855106312       -3.0351895756        0.8607675807
 H          0.3194721823       -2.5895560872        1.7087993364
 H          1.2808226752       -2.6079915990        0.4686670759
 O          2.4367268400       -1.8394754284       -0.4725695639
 H          1.8457763418       -1.4301118072       -1.1328670577
 H          3.0746528117       -2.3836740763       -0.9650608064
 O         -0.7063181715        0.1872442611        4.6823409360
 H         -0.6654726831       -0.6790287896        4.2318984898
 H         -1.6067642885        0.5479860890        4.5377229917
 O         -2.6115914372       -2.6349798233        0.9458984463
 H         -2.0671324622       -1.8312249002        0.7025991970
 H         -2.7615265114       -3.0927936727        0.1026494987
 O         -1.6651249469       -4.1972968062        2.7873626999
 H         -2.1288245668       -3.6209665788        2.1313833223
 H         -1.0509177316       -4.7306445328        2.2682063135
 O         -1.2043873332        1.4327839850       -2.2013048535
 H         -0.6027177863        0.6718560647       -2.2652662334
 H         -0.6915529529        2.2156366810       -2.4740631100
 O          3.3667859151        0.8115778905        0.5752108829
 H          3.5855741364        1.7171740041        0.8760581540
 H          2.9408740056        0.9622301733       -0.2881222027
 O         -2.1504716327        4.7523538058       -1.0881156074
 H         -2.8453615309        4.2089058657       -1.5076846702
 H         -1.3143618181        4.4320938254       -1.4653127912
 O         -0.3148814969        4.8681744736        1.4863765736
 H         -0.2275041262        4.0365848338        0.9960634692
 H         -1.2688543850        4.9277513010        1.7094477460
 O         -4.9450580945        5.5780042843       -0.6250222314
 H         -4.2897343657        6.2864735456       -0.4690659093
 H         -5.2179744601        5.6285078338       -1.5551228406
 O          2.5737322259       -2.5239934000       -3.9926690032
 H          1.8022195199       -3.0322123486       -3.7094229570
 H          2.7752850657       -2.8541066176       -4.8956434788
 O          0.0600226140        3.8467109997       -2.3773068168
 H          0.6588785512        4.0511334707       -1.6321075409
 H          0.5796005697        3.9608511300       -3.1773676474
 O         -5.1952793483        3.2279642976        0.7149167189
 H         -5.0178655919        4.0927041152        0.3126686931
 H         -4.5722709765        2.5994068123        0.2928969991
 O         -4.2580389414       -2.5546308091       -4.1801125730
 H         -4.6550866552       -3.1078063530       -3.4843029135
 H         -4.7235428724       -1.6966550096       -4.0799450173
 O          1.7755537905        0.8920277664        3.8687380875
 H          1.7127677526        1.8433736894        3.6972400360
 H          0.9127215664        0.6376110378        4.2420076042
 O         -3.9427071815       -6.1062574037        3.6508459060
 H         -3.4514146630       -5.9201695838        4.4654843112
 H         -3.2977054134       -6.4858406848        3.0372967880
 O         -3.2429692160        1.0318921019        4.4635245055
 H         -3.4510359500        0.1534048084        4.0989270233
 H         -3.7120741917        1.0684264444        5.3262373914
 O          1.4529146114        3.5427764510        3.3458988799
 H          0.4718681640        3.4826350003        3.3489191616
 H          1.6681105392        4.3206095073        2.7894819849
 O         -3.4847985620        1.6950206987       -0.6948052996
 H         -3.7196960894        0.7666457338       -0.8740987013
 H         -3.4600910306        2.1446539680       -1.5437250715
 O         -0.0787139130       -0.9386482064       -4.5618861860
 H         -0.9037304853       -1.1592494317       -4.0951918670
 H          0.0953441858       -1.6531200946       -5.2009171911
 O          3.7961699343       -0.1671280931       -2.6733194453
 H          3.9689357402       -0.8330618398       -2.0016487233
 H          4.1407742121        0.6654088158       -2.3045824698
 O          4.8441505650       -2.7307852145        1.1301329456
 H          4.1934077562       -3.3819689521        0.7797804056
 H          4.5183906480       -2.5163771919        2.0318118999
 O         -4.0025800377        0.0538207270        1.6653090406
 H         -4.6100427168        0.1658725852        0.9183452843
 H         -4.5810971760       -0.1493545068        2.4205093717
 O         -5.6006141658       -0.7492294740        3.6335671518
 H         -5.8748011950       -0.7825233767        4.5648975194
 H         -6.3737780020       -0.9776218197        3.0959723792
 O          4.6727285417        5.3165676508        0.2078857282
 H          5.2527465306        5.8296195401        0.8121159438
 H          4.1608713728        4.6997126985        0.7616831027
 O          4.8110433389        1.9720244456       -1.3773218468
 H          5.5393921762        2.2607963590       -0.8149694271
 H          4.3897160732        2.7924074576       -1.6878010453
 O          2.3351788847       -1.3584032900        2.2229550675
 H          2.0942361013       -0.5911075601        2.7567343312
 H          2.5663055529       -1.0534783855        1.3365477173
 O         -2.7853324544        2.3588773110        1.9578091067
 H         -3.2803468421        1.5081086327        1.8601681345
 H         -2.1147421395        2.3547000012        1.2494622453
 O         -1.1288482269        3.2081191111        3.8033155411
 H         -1.2069278545        2.8756685931        4.7173079592
 H         -1.8132768043        2.7757944476        3.2447023267
 O         -3.9568321553       -0.9376965781       -1.2659873323
 H         -4.3710963408       -1.4821084452       -0.5738623930
 H         -4.6351988349       -0.8131316155       -1.9579010501
 O          5.4440509277       -1.2015523789       -4.4479923773
 H          4.7133714085       -0.7715404277       -3.9439281758
 H          6.1049007139       -1.4265084128       -3.7681041689
 O         -2.9128046051       -1.5824980169        3.7265560957
 H         -2.5790342730       -1.5475090361        2.8251815365
 H         -3.7347707186       -2.0996497976        3.6660268227
 O          1.8436238676        4.1867521424       -0.4268952923
 H          1.9619174458        4.6294466378        0.4264885159
 H          2.6311584408        4.4017364976       -0.9692051177
 O         -5.6707123760       -5.0898849951        0.8924487708
 H         -5.5629851358       -4.1068219008        0.8319219683
 H         -4.7836308331       -5.4678748120        0.7475178968
 O          0.4812829831        3.1005677681       -6.9466357964
 H          0.1926412461        3.9901652578       -6.6995285556
 H          1.4499634841        3.1490421527       -7.0172311301
 O         -4.9253225332        2.9848523581        3.4963640171
 H         -4.2557416606        2.3005626660        3.6858728734
 H         -5.0864455279        2.9611833882        2.5346146178
 O          2.8592963392        2.2478482663       -4.0875061801
 H          3.8341938539        2.1627974335       -3.9915860394
 H          2.7281025800        2.7443943940       -4.9130128884
 O          2.2706704489       -4.0592346243        2.7973908823
 H          2.3075310325       -3.0871534867        2.7346713361
 H          1.6220957579       -4.2989518797        3.4789408760
 O          0.2478958202        6.7996004938        3.4264835691
 H         -0.5323152185        6.6178078422        3.9759961279
 H          0.2195289103        6.1187617338        2.7355227131
 O         -2.7737007494        6.6944236145       -2.7929998132
 H         -3.1582825045        7.3948330731       -2.2602598576
 H         -2.4700743594        6.0202381849       -2.1355801062
 O          4.8383206454       -4.9220982916        5.8253974460
 H          4.6598000544       -5.4528337824        5.0366157949
 H          5.5353350310       -4.3000976972        5.5694845196
 O          2.2336192531       -7.1325111803       -1.7020874876
 H          1.7096174975       -7.3266911688       -2.5021596956
 H          1.8176854772       -7.5533690211       -0.9404758303
 O         -3.8004771870        3.5654149049       -2.7720019631
 H         -4.4065733207        4.2905460070       -3.0228794309
 H         -3.0838391776        3.5356596677       -3.4384203225
 O          3.1961623140       -4.6273125690        0.3927926950
 H          2.6947835363       -4.4790844502       -0.4406934414
 H          2.6072218650       -4.4963215217        1.1552835657
 O          9.1837556894       -3.8531727637        2.5151193905
 H          8.5152194113       -3.1557796289        2.3341352383
 H          8.6704485162       -4.6566989565        2.6485125540
 O          0.1758638791        1.7361708218       -4.5806873236
 H          0.0929574680        0.7693905649       -4.6722671998
 H          0.5008625315        2.0752960906       -5.4273132485
 O         -2.7852407853       -0.4274000422        7.9799483571
 H         -2.6976828388       -1.2411197540        7.4589479592
 H         -1.9135761340       -0.0031858020        7.9457885568
 O          2.4575879680        5.5378184177        1.8853539353
 H          2.1443637297        6.4414840832        1.6736001656
 H          3.2273008619        5.6486000453        2.4776618245
 O          5.4827949097       -3.8795290540       -4.9504103641
 H          6.4002501145       -4.0674600197       -4.7306095759
 H          5.3657298059       -2.9192306417       -4.8106375517
 O         -2.4171093855       -3.2931748102       -6.1763616766
 H         -3.2466663236       -3.5764021968       -6.5770501366
 H         -2.5297897533       -2.3347355496       -5.9658445103
 O         -3.1686500099       -3.9508962835       -1.4153716745
 H         -4.1125972781       -3.7519993001       -1.5666323330
 H         -3.1355356324       -4.7905554303       -0.9292941162
 O         -2.2507563799       -4.6406283225       -3.8696648792
 H         -2.4931125859       -4.1937483576       -3.0281652640
 H         -2.3555506392       -4.0264035884       -4.6294019572
 O          4.1109602383       -7.0661560119        0.9589807461
 H          3.3521987583       -7.6396176782        0.8269571484
 H          3.8690372144       -6.2070942924        0.5516804028
 O          3.0528672276       -3.6744444401       -6.3667848644
 H          3.9998792454       -3.5729792461       -6.4947731045
 H          2.9565461702       -4.5128962448       -5.8790602463
 O         -1.7444443398       -7.2994246836        2.2540961687
 H         -1.0522546176       -6.6683705541        1.9882679863
 H         -1.4222052996       -7.7405736310        3.0411818420
 O         -1.9349606486       -5.0629575865        5.2533380523
 H         -1.9505884208       -4.7150315234        4.3360270460
 H         -2.0981614344       -4.2809779044        5.8090180813
 O          4.1112764409       -5.9747155090        3.3510205520
 H          4.1808606637       -6.4608998160        2.4924829432
 H          3.5592057584       -5.1892946621        3.1555867747
 O          6.7421583037       -3.2772262752        4.6217358631
 H          6.8479072574       -3.9582299932        3.9279856148
 H          7.5738368330       -2.7563530243        4.6246777120
 O         -5.3070455655       -3.6364341196       -6.3570471630
 H         -5.4090658759       -2.9182870950       -6.9911915152
 H         -4.9012693012       -3.2068334166       -5.5684615191
 O          1.9505162638       -4.4623934871       -1.9029699935
 H          1.0694187121       -4.0441050526       -1.9046863971
 H          1.8160343732       -5.4239396241       -1.8646371566
 O         -1.7021074363       -7.2971141701       -3.4601164292
 H         -0.8270322429       -7.5026825595       -3.8182477630
 H         -1.9269768658       -6.4172588219       -3.8067324331
 O         -1.8024381094        3.4091566558       -4.6076433271
 H         -1.0858358103        2.7350593229       -4.4756946825
 H         -2.2370592332        3.1708458740       -5.4305317369
 O          4.1991753200        0.8116992678       -7.1791010291
 H          3.7135890920        0.3497542211       -6.4654099102
 H          5.1328466829        0.6360195501       -7.0252627380
 O         -2.0705259276       -1.6613773516       -2.9446569296
 H         -2.7531494901       -2.0141358998       -3.5459914600
 H         -2.5969843689       -1.3068799285       -2.1984419330
 O         -4.3552797217        2.8227749574       -5.7006387422
 H         -4.2440866637        3.7578753119       -5.4731582275
 H         -4.0157762576        2.2839438304       -4.9524232244
 O         -5.5136417110       -0.4186826909       -3.3951786597
 H         -6.4394645781       -0.1403237722       -3.2426504887
 H         -4.9704443971        0.3717075826       -3.5487567260
 O          8.7100362422        1.6430039818       -0.9090870120
 H          8.0729939654        1.3115458545       -1.5756383356
 H          8.2952185881        1.3647323276       -0.0626822910
 O          5.4384775863       -0.5831540761       -0.3537220924
 H          4.7006257704        0.0186040710       -0.1122047522
 H          5.2238898445       -1.4239551119        0.0911401895
 O          2.0033763040        1.7428885645       -1.6007975908
 H          2.2922176732        1.9699649279       -2.5027411445
 H          1.8893340368        2.5797233117       -1.1217735064
 O          4.8630691286        4.9389491648       -5.2023028754
 H          5.6820695528        4.5213324595       -5.4935371840
 H          5.0991076141        5.4749981209       -4.4289423373
 O          2.3791008553        6.5069996600        5.1226018172
 H          1.6418536802        6.7062535696        4.5130306359
 H          2.0935653687        5.7333046013        5.6332676047
 O         -7.4546684621       -1.3467160025        1.6945971868
 H         -8.1574627327       -2.0251238640        1.7215254037
 H         -7.8282116132       -0.5977930579        1.1947577153
 O          4.3260181076       -3.0481557467       -2.0068499401
 H          4.3840822305       -4.0192152094       -1.9260562899
 H          3.7776712543       -2.8742450874       -2.8026283354
 O          2.5444579424       -0.1147574043       -5.2650445354
 H          2.5822794430       -0.8779116121       -4.6642491432
 H          2.5424119136        0.6897519013       -4.7026599889
 O         -3.3368232595        1.0891439818       -3.8731544615
 H         -2.5877705344        1.1986533647       -3.2547171764
 H         -3.0664695575        0.3813701953       -4.4924092986
 O          8.4462984973        4.5795323639        1.6384596623
 H          9.0093830638        4.6050238505        0.8507883641
 H          8.8464802656        3.9535100433        2.2611698909
 O         -4.4512901637        5.2551864123        4.8287777148
 H         -3.4970586644        5.4522638448        4.7698532953
 H         -4.6013328732        4.4571906729        4.2797742360
 O         -3.7932911913        1.3495227645       -8.0040193650
 H         -2.8385741943        1.2123086049       -7.9284922847
 H         -4.0450545165        1.9477799617       -7.2831005282
 O         -3.1301377867        7.5271178218       -0.1292128205
 H         -2.1705959416        7.3317386236       -0.1236471690
 H         -3.3729165613        7.7596328498        0.7706523636
 O         -3.6699804458        3.6745958506        6.9644965815
 H         -4.1287048255        2.8242463234        6.9513207506
 H         -4.1129967635        4.2566042875        6.3201051743
 O         -5.2803026049       -2.4860839696        0.6441132688
 H         -4.5224018474       -2.3768326012        1.2393672191
 H         -6.0500863546       -2.0350298751        1.0569219869
 O         -0.4475028521        6.9310259705       -0.2004861976
 H         -0.3824614629        6.1113765137        0.3408698912
 H          0.0317787977        6.7475233081       -1.0266378266
 O          0.2522815402       -2.9122142461       -6.3745421100
 H         -0.6556775877       -3.0878092592       -6.6580213408
 H          0.6926032276       -2.3500395764       -7.0279843978
 O          6.3910880048        6.4172676352        1.8854211311
 H          5.8261975480        6.3100131933        2.6693416324
 H          7.1411717887        5.8101986256        1.9868360485
 O          6.3613266582        2.5599587818        2.8601838716
 H          7.3213717869        2.6950728661        2.9630706872
 H          5.9708003203        2.7995624089        3.7204248561
 O          3.7322739970        4.2724870094       -2.2516712731
 H          3.2344837015        4.1754229916       -3.0730251773
 H          4.3712588381        5.0043749500       -2.3888907405
 O         11.2098992808       -1.0142654953        0.9110344570
 H         11.0595444357       -1.9435455305        0.7054643974
 H         11.1856444149       -0.5534761467        0.0594569635
 O         -7.6108404786        2.9806217149       -0.3999727272
 H         -8.0866594431        2.1646844842       -0.1359112880
 H         -6.8144522723        3.0395147064        0.1731286145
 O         -8.2449892611        5.2582187839       -3.0269170292
 H         -8.4897504627        4.3192521800       -3.1359860649
 H         -8.5095595325        5.4745556167       -2.1134913805
 O          5.4728492982        2.1619160294       -4.0012821575
 H          5.7756357082        2.9312730420       -3.4533640721
 H          5.8292306619        2.3441286696       -4.8877950821
 O         -7.2795719103       -0.5292728063       -5.9170808418
 H         -7.1268534794        0.3696842032       -5.5417398176
 H         -7.1812034494       -1.1724732571       -5.1949098467
 O          4.4467083057        5.7052031881        3.6949622323
 H          4.7380016727        4.9119861505        4.1732639906
 H          3.7834573112        6.1332748211        4.2884245478
 O          4.5180588581       -2.1329632878        3.6928593159
 H          5.3306631570       -2.4776218040        4.1184488996
 H          4.5921201933       -1.1639704629        3.6119585450
 O          3.7725479376       -1.9231782855        7.8776216475
 H          4.5811774561       -1.7871229902        7.3580582458
 H          3.4329387383       -2.7956485985        7.6510622862
 O         -5.7245579070       -3.5059636134       -2.1754242164
 H         -6.1406145213       -4.3684881793       -1.9714366296
 H         -6.2263995273       -2.8103161315       -1.6762087487
 O          3.3346363032        2.1359416106        6.3284942461
 H          2.6484501273        2.8316550696        6.3764548330
 H          2.8602657351        1.2803634765        6.4100310232
 O         -6.2578582824       -1.0535742762        6.2550401783
 H         -5.7335085199       -1.8897856161        6.3298808984
 H         -7.1787036043       -1.3373605601        6.2256731582
 O         -5.9905604201        0.3781387878       -0.1916597906
 H         -6.0541449421        0.9729469053       -0.9551739320
 H         -6.4159321726        0.8213033636        0.5711178641
 O         -1.0952594843        0.8585193520       -7.2674244398
 H         -0.6671003477        1.7276578893       -7.2163306835
 H         -0.3537045909        0.2462679391       -7.4377964433
 O         -3.3605197949       -6.2069876206        0.0834722482
 H         -2.8514723562       -6.7657551691        0.6769529235
 H         -3.6730102104       -6.7602793998       -0.6678331990
 O          2.1253388151       -0.1969385006        6.7716674202
 H          2.7507057174       -0.7047530245        7.3353256260
 H          2.0945172743       -0.7073786117        5.9296045271
 O         -0.3992404771        0.7006654845        7.2549309571
 H          0.5445620683        0.5739352768        7.4142146315
 H         -0.5288526069        0.4178016469        6.3198714422
 O          6.0197707071       -1.2604474032        6.4197883205
 H          6.6627379684       -1.9505089359        6.5885726833
 H          6.2249134062       -0.9333855618        5.5140247242
 O         -0.0897150076       -2.1284627568        3.4598975504
 H          0.6992678138       -2.2132627642        4.0297401131
 H         -0.6360406547       -2.9299068885        3.5244141773
 O         -0.6742899743       -6.0112299795       -1.3006048001
 H         -0.7634894162       -5.0797988401       -1.5765942888
 H         -1.1100244114       -6.5573895985       -1.9742572749
 O          6.5692731650        3.4691457233       -0.0419221350
 H          7.2191698838        3.7480577466        0.6214306877
 H          5.8601987453        4.1461975570       -0.0222496277
 O          3.3052440875       -5.4975208731       -4.3691134109
 H          4.1964132595       -5.1208085380       -4.4414722428
 H          2.9000447666       -5.0759182751       -3.5978119959
 O          3.1512485591        3.2053461050       -6.6096791478
 H          3.8337787522        3.8452379662       -6.3728756210
 H          3.6045113713        2.3901084415       -6.9205623830
 O         -1.1134948038        3.1534505590        6.4656827087
 H         -2.0345170604        3.3697056053        6.7339428396
 H         -0.8998702315        2.3066851404        6.9026616777
 O         -8.9038777529       -3.8520458574       -0.9330711622
 H         -8.3152152621       -3.0682904770       -0.9181764682
 H         -8.3398626026       -4.6200950004       -1.0914727315
 O          1.7632025935       -7.4083680388        3.6928993777
 H          2.6640793661       -7.0470065105        3.7713174559
 H          1.6906813843       -7.7058344684        2.7760117594
 O         -2.1997449487       -2.5028736339        6.1753843647
 H         -2.2742709207       -2.0824903865        5.2962551139
 H         -1.2774392983       -2.4161982249        6.4876719931
 O          4.6946836487       -5.7248941815       -1.7819548727
 H          3.9298415326       -6.3166231546       -1.7671680613
 H          5.3595621324       -6.1286253617       -2.3748464086
 O          7.2531375685        0.6992693893        1.0867602150
 H          6.7614947613        1.3576011008        1.5964236644
 H          6.6073922324        0.1973589326        0.5395641088
 O        -10.3191442837        0.9003285366        2.3972544608
 H         -9.6461876025        0.6748104438        3.0740687368
 H        -10.4637836958        1.8549188631        2.4844418515
 O         -2.9484626260        4.9665881861        1.5390032195
 H         -3.1437206538        4.0354161547        1.7699183867
 H         -2.8243413269        4.9811254127        0.5741225206
 O         -6.8789902431       -5.7386504235       -1.3175437651
 H         -6.5550878996       -6.5886776779       -1.6169130045
 H         -6.4871286907       -5.5818065574       -0.4160953501
 O         -7.3062854610       -1.7070435253       -1.1676506039
 H         -7.7588939029       -1.1827195447       -1.8527263841
 H         -6.8215593349       -1.0256989074       -0.6479838152
 O         -4.9594464959       -0.9400691629       -7.1904380426
 H         -5.8377680280       -0.7405123340       -6.7962501113
 H         -4.7136929737       -0.1546767787       -7.7152356561
 O         -6.1042040301        2.1182416425       -2.3834571117
 H         -6.7434090993        2.6242812598       -1.8393340417
 H         -5.2956731034        2.6459700490       -2.4559687993
 O          6.9595796088        0.5281196925       -2.5792468624
 H          6.4717142314        0.0669942469       -1.8779811846
 H          6.2860234473        1.0587183385       -3.0704728975
 O         -8.9447981486        2.6488029153       -3.2287923594
 H         -9.8339948409        2.4321276776       -2.8870976819
 H         -8.9170108902        2.4310588550       -4.1649405763
 O         -3.6095148881        5.5223262949       -5.1325702360
 H         -3.3019370654        5.9304093702       -4.3001909181
 H         -3.0312252028        5.8581772705       -5.8179514869
 O         -5.6749449514        5.4081200814       -3.2277181108
 H         -6.6712791295        5.3414372549       -3.1752703473
 H         -5.4680528007        5.8438849834       -4.0563316348
 O         -4.8505023586       -5.5280532673       -4.0521138885
 H         -3.9199084130       -5.2409872066       -4.0755814127
 H         -5.2062674169       -5.3633923989       -4.9274632466
 O          0.2545023603       -2.3619583253        7.1782337237
 H          0.8855521191       -3.0821484003        7.2635779661
 H          0.7582054897       -1.5383055322        7.2042170900
 O          6.7475041103       -0.1903387222        4.0547156175
 H          7.3764830742        0.4286942454        4.4617864867
 H          6.0216265937        0.3495090844        3.6972734730
 O          6.3939588131       -4.7493595518        0.0716564824
 H          5.7299216821       -5.2318992253       -0.4575920493
 H          5.9872164397       -3.8957806328        0.2799253458
 O          9.0456394729        2.5599303850        3.3631996114
 H          8.8660194068        2.4350055972        4.3040360866
 H          9.3145535375        1.6702187630        3.0385487213
 O          7.2998036703       -1.9904187508        2.0548564195
 H          6.4312680606       -2.3428382463        1.8137077638
 H          7.1669471907       -1.3474908827        2.7761361264
 O          0.9846914831       -7.0686795290       -4.1044158504
 H          0.8274405740       -6.0916585524       -4.1200538497
 H          1.8068605220       -7.1718552736       -4.5902646523
 O          6.7330660679       -5.2219402099        2.7360755369
 H          5.9011378304       -5.6231349756        3.0314418951
 H          6.6504280529       -5.1473043144        1.7661453432
 O         -7.2584140376       -2.8474140781       -4.3782213485
 H         -6.9061469300       -3.3353741392       -5.1334184041
 H         -6.7147460145       -3.0970569311       -3.6072286661
 O         -7.6371213664        4.0627876992        2.6765377936
 H         -7.2824461359        4.8240212334        2.1494743114
 H         -7.2705045040        4.1294010732        3.5611457701
 O         -8.7617388740        0.6292563738        0.2492169646
 H         -9.3646584936        0.7931179074        1.0039614851
 H         -9.2942315339        0.1588268448       -0.4187277925
 O         -9.3844423278       -3.2063360160        1.6564032003
 H         -9.3064999551       -3.6045966119        0.7697007786
 H        -10.1674424292       -2.6117953182        1.5930686678
 O          0.7104939807       -5.1571858795        4.7488349448
 H         -0.2223060154       -5.2052766715        5.0425274642
 H          0.9675183448       -6.0480812135        4.4466017101
 O          2.4095956506       -4.1595864458        6.5818233231
 H          3.3070116295       -4.5069840342        6.3804252642
 H          1.7944123997       -4.6818734658        6.0281139023
 O         -4.1921161541       -7.3898458402       -2.1506682365
 H         -4.5839302238       -6.7572630013       -2.7783681686
 H         -3.3719947523       -7.6724067101       -2.5760780748
 O         -4.8279385213       -3.4978263796        3.3873429815
 H         -4.5425440286       -4.4245885062        3.3207250166
 H         -5.8014092989       -3.4884013486        3.3364636692
 O          1.4479828519        4.0256351283        5.9883742717
 H          0.5457829709        3.8009445835        6.2713823239
 H          1.4706605707        3.8570913345        5.0217496100
 O         -4.5547940596        6.8749396609        2.5966960866
 H         -3.9633909562        6.2078622273        2.1931224120
 H         -4.6579826413        6.5697652019        3.5126514566
 O          0.4605329500       -4.4566467737       -4.1958777975
 H         -0.4858654280       -4.4599207192       -3.9747775462
 H          0.5308560331       -4.0533345667       -5.0756811730
 O         -8.0944206820        0.1014990633       -2.9309549831
 H         -8.2038958674        1.0378656402       -2.7009020164
 H         -8.7642562573       -0.0691800993       -3.6260697274
 O        -10.2566272497        3.6218660466        2.4975297645
 H        -10.6544944654        4.2457163589        3.1031658531
 H         -9.2835932574        3.7800626859        2.5245840092
 O          2.1621074003       -2.0836189425        4.9345006787
 H          2.2305747596       -2.8302154236        5.5656103084
 H          2.9960279141       -2.0956673231        4.4232208153
 O          4.3374583900        0.5286361142        3.2126532780
 H          4.0776298552        0.4838810335        2.2827277772
 H          3.5161010962        0.7056002516        3.6982593484
 O         -2.7528638529       -0.6964529014       -5.7586992763
 H         -2.1336811947       -0.1648258243       -6.2917763400
 H         -3.6019697601       -0.7417238363       -6.2622329669
 O         -6.8714954288        1.4980949608        2.0452737105
 H         -7.2986745776        0.9458181757        2.7138659495
 H         -7.1626341212        2.4047087040        2.2160856615
 O          8.3636520424       -1.5911946278       -0.4044803977
 H          9.0696348412       -2.2580922411       -0.3274489841
 H          7.9458181538       -1.5677754552        0.4712909106
 O         10.2437159353       -2.3709231268       -2.6370751329
 H         10.4623286182       -1.5121263807       -2.2176056053
 H         10.3709472420       -3.0138353566       -1.9334711286
 O          9.0816484546       -1.9046833133        4.5461371106
 H          9.5552633373       -2.6225495476        4.1084754360
 H          9.1611501746       -1.1500259960        3.9291133506
 O          0.0822352204       -5.5825844273        1.1298841264
 H         -0.3011729793       -5.7530819963        0.2385985843
 H          0.4013135225       -4.6432825137        1.0646704428
 O          1.3443168818       -7.8788429868        0.8944873481
 H          0.5891343042       -8.4642656230        0.8305204084
 H          0.9824987015       -6.9632312933        0.9935893175
 O          6.8354124757        0.2799314179       -6.1501044436
 H          6.2492601882       -0.2175126327       -5.5307835137
 H          7.7079312302       -0.0744740966       -5.9591586151
 O          5.8544931533        1.3674097294        7.2294034604
 H          5.8242182476        0.3981100772        7.1805638152
 H          4.9453968339        1.6616580704        7.0579053441
 O          1.2535597407        6.5856303305       -2.3108287224
 H          1.6055240179        5.9674591380       -2.9749126003
 H          2.0328337091        6.9426724834       -1.8357199863
 O          5.2010762770        6.4272399748       -2.7927877877
 H          4.6620664279        7.0827189713       -2.3355011488
 H          6.0252907003        6.3509752282       -2.2738975048
 O         -6.7466851198        6.1208303042        1.2944942579
 H         -6.0765812135        6.5504138742        1.8709811276
 H         -6.2175156129        5.8732604038        0.5095223330
 O          8.0363360155        1.5397803158        5.7249121550
 H          7.2316127012        1.5784649483        6.2959275208
 H          8.6768715050        1.0132065650        6.2041240427
 O          8.6944244796       -0.7842424130       -4.2126515796
 H          8.0412243276       -0.4021206542       -3.5911310593
 H          9.1244113952       -1.4944165054       -3.7089706093
 O         10.1680799835       -3.5947003828        0.0267954073
 H          9.9667823949       -3.7488378193        0.9729327953
 H          9.7441802103       -4.3551176504       -0.4296879609
 O         -1.7509939416        5.5758845343        4.7965454187
 H         -1.5325738719        4.7307422334        4.3304680209
 H         -1.5468784798        5.4190937445        5.7209081131
 O          1.1924547361       -0.5927842968       -7.4837381282
 H          1.6155994747       -0.4130014124       -6.6080445785
 H          1.8498078754       -0.3364789985       -8.1310779621
 O         -6.8383157119        2.2974500450        5.2535083040
 H         -6.1803101840        2.4967999346        4.5522468170
 H         -6.3202831494        2.0059751141        6.0075608637
 O          6.7133750424        4.0426354532       -2.6934396263
 H          6.7652690133        3.8564497824       -1.7364759532
 H          7.6029171185        3.9531397171       -3.0452844619
 O          6.8140001538       -6.6362379160       -3.1540158164
 H          7.1979524799       -5.8666631953       -3.5953078624
 H          7.4353358492       -6.8680913914       -2.4556518669
 O          8.0828168370       -4.1478928970       -3.6832949161
 H          7.6084914029       -3.4192051266       -3.1841206314
 H          8.9411001677       -3.7818294194       -3.9078491471
 O         -0.2823666973        5.3918560043       -5.5875179545
 H         -0.8838561056        4.7901868167       -5.1011008779
 H         -0.3911898706        6.2782561218       -5.1606904011
 O          2.0293421946        4.9417872242       -4.3658357341
 H          1.2480193642        5.1165146299       -4.9388356329
 H          2.8145046016        5.1815111843       -4.8680460935
 O          8.7156402807        2.6247604522       -3.9806025045
 H          8.1721495839        1.9194264820       -3.6078155273
 H          9.5815829294        2.2217376135       -4.1384242775
 O         -6.8483835734        1.9287431060       -4.9963511262
 H         -6.6626817750        2.0088790105       -4.0391419148
 H         -6.0771197802        2.3072190038       -5.4454554243
 O         -4.8514257740       -3.2696514382        6.1173048372
 H         -3.9405110432       -3.0592965325        6.3560684748
 H         -4.8554238663       -3.3770673001        5.1453951837
 O         -8.6172062820       -2.0659892913        5.2898823006
 H         -9.5293049018       -2.3506009864        5.3364538600
 H         -8.1543446215       -2.7177605408        4.7129526855
 O        -11.0992390993        3.7645687243       -0.1501771687
 H        -10.9235819434        3.5537603530        0.7795350333
 H        -10.4267699338        4.4312946740       -0.3729736686
 O         -9.7573509617       -2.5566577524       -3.2162323580
 H         -9.7087467665       -3.1572541690       -2.4531391176
 H         -8.9005474700       -2.6560296980       -3.6651767224
 O         -4.6106431773        1.0177814021        6.7497719790
 H         -3.9403301493        0.5752728202        7.3252558887
 H         -5.2829107875        0.3233047785        6.6235803672
 O         -7.5340101796       -3.7933009202        3.5716914526
 H         -8.2084137595       -3.6723035694        2.8814810331
 H         -7.3676380478       -4.7604658874        3.6064326816
 O          1.5432469393        7.9817096029        1.2523421264
 H          1.1696634543        8.1450207455        2.1251501366
 H          0.7757899557        7.7505837204        0.6807386622
 O          7.3341848916        6.4007276093       -1.0479147445
 H          7.1122223887        6.6189180266       -0.1383478308
 H          7.9731845735        5.6751984093       -1.0203124604
 O          3.9783764772        3.1471881470        1.7174108198
 H          4.8687099302        2.9779512235        2.0741783854
 H          3.3724967716        3.2295652023        2.4585565856
 O          3.3466519337        7.3917624093       -0.8636162907
 H          3.7888045456        6.6066834950       -0.4720358600
 H          2.9231741178        7.8551168340       -0.1321159074
 O         -6.6843046234       -6.2717274830        3.1505086346
 H         -5.8365505353       -6.4294937981        3.5852823779
 H         -6.4425454751       -5.9521567049        2.2628769828
 O          5.2292154548        3.4606886443        5.0932577209
 H          4.4773489581        2.9292401735        5.4412344071
 H          5.8293264245        3.5762607906        5.8310275564
 O          6.9542561152        3.0234784197       -6.0706465132
 H          6.9814781207        2.1160668869       -6.4156361861
 H          7.7006390906        3.0807144597       -5.4487095022
 O         -9.8406960305       -0.2873420941       -4.9147553560
 H        -10.1639504475       -1.1569127664       -4.6550197330
 H         -9.1351075915       -0.4260728886       -5.5704994966
 O        -11.2738426023        1.9709775482       -2.0594181908
 H        -11.1909913407        2.5840027134       -1.2806683390
 H        -12.1218042608        2.1656418876       -2.4570824562
 O        -11.2809136671       -1.4123480849        1.1882961261
 H        -11.0938573633       -0.6000139261        1.6820075765
 H        -11.1194742229       -1.2005874424        0.2545948530
 O         -8.3336728804        0.3937735100        4.0913682999
 H         -8.3998612572       -0.4458633281        4.5739070083
 H         -7.8812094769        1.0510432800        4.6597744229
 O          9.2706634047        4.2488025545       -0.9596384256
 H          9.0233893680        3.2914829558       -0.9533182921
 H         10.0111250310        4.3338042315       -1.5581157088
 O          9.3966734519        0.0273565013        2.6025273223
 H          8.6169199814        0.0942452287        2.0181876002
 H         10.1189999859       -0.3229260513        2.0396271856
 O         -8.8477343935        5.3105874867       -0.3849765040
 H         -8.3956497639        4.4327684228       -0.3606407562
 H         -8.3655141168        5.8580002752        0.2452229966
 O        -10.5020410968       -0.6067743387       -1.3769564234
 H        -10.8703179635        0.2030052505       -1.7619882917
 H        -10.2842871795       -1.2181426394       -2.1016617323
 O          8.6622281112       -5.3683433757       -1.2689830181
 H          7.8639657593       -5.1707576757       -0.7425114525
 H          8.5194752480       -4.9458459090       -2.1342789572
 O         10.7568997221        0.8519927900       -4.2825187743
 H         10.0044272342        0.1999374523       -4.3202157080
 H         11.4039529084        0.5651106351       -4.9246672254
 O         -0.5539545985        7.5471079767       -4.1129348608
 H         -1.3826267769        7.3515455455       -3.6394921296
 H          0.1503770095        7.3991993067       -3.4565003210
 O         10.7803164204        0.0920261535       -1.6019023859
 H         11.0276791495        0.5023894632       -2.4418021352
 H         10.0008907778        0.6000623151       -1.2819157262
