  132
       -218.69001011
 H         -1.8827928334       -0.0140082148       -1.8128835652
 C         -1.2221481236        0.7078493409       -1.3307702077
 H         -0.7829844699        1.3523506581       -2.0940247548
 C         -0.0962171737        0.0135549867       -0.5864023148
 H          0.5571851986        0.7669026348       -0.1521871413
 H          0.4663497790       -0.5945832989       -1.2893531844
 O         -2.0325787028        1.4845432523       -0.4591545675
 H         -1.4371479380        2.0274757221        0.1136533225
 N         -0.5881939164       -0.8653707057        0.4887013310
 H         -1.1703440641       -0.3560268046        1.1919813960
 H          0.2458082809       -1.2964882095        0.9645907199
 H         -1.1319473947       -1.6545196796        0.0712215163
 O          4.5753976571        3.9937880341       -0.5195680552
 H          4.8636152524        3.5710280717        0.3318537713
 H          5.0316744559        4.8339485781       -0.5685645782
 O          1.9187608995        1.4864313059       -3.5072100165
 H          1.3088749797        2.1215825647       -3.0803362717
 H          2.7846487861        1.9463125427       -3.5059662424
 O          1.4147756715       -2.5269247486       -1.9128617770
 H          1.8041656664       -3.3721894708       -1.6541302819
 H          0.6876759881       -2.6963007392       -2.5294674090
 O         -2.9179136043        2.9008590368        2.1805084239
 H         -2.1301098961        3.3224214080        1.8167698466
 H         -2.6423851256        1.9822475385        2.3608236437
 O          1.1329011792        1.0710855952        2.5232381908
 H          1.0746299257        0.2867501504        3.1166411715
 H          1.7340495184        0.8037317571        1.8003626387
 O         -5.2260566564        2.9377957558        0.9769741338
 H         -5.6848043036        3.6856650616        1.3612550666
 H         -4.3147790678        2.9414872981        1.3807257380
 O         -0.8974962405       -2.4518765580       -3.4312010127
 H         -1.2345453245       -2.9173880397       -4.1972076076
 H         -0.6859804840       -1.5393186759       -3.7449549602
 O          2.0618284255        3.1686859486       -0.0593099039
 H          2.3835419265        2.2666829580        0.1570422795
 H          2.8756896147        3.6668599060       -0.2516455595
 O          5.4009281744       -0.0980655687       -2.8280691218
 H          5.4411679032       -0.4047240241       -3.7348178926
 H          4.4635321153       -0.2185776989       -2.5253310027
 O          2.7307149030       -4.6421284926       -0.6873638356
 H          3.2844594081       -5.4151628693       -0.7985578443
 H          3.2483918492       -3.9916265633       -0.1698983727
 O         -3.0464414635        3.2949341705       -2.2928330437
 H         -3.9888839277        3.0998880599       -2.1922621404
 H         -2.6172680761        2.7920798504       -1.5792839601
 O         -0.3693636705        2.8734762537        1.1525787506
 H          0.0001024776        2.2373361540        1.7912242183
 H          0.4094656346        3.2576647533        0.7223999044
 O          3.2174692023        2.2784106757        3.6862103530
 H          2.3794558584        1.9781007834        3.2643931899
 H          2.9893037159        2.9393713957        4.3400635941
 O          0.3485131174       -4.3453829753        0.7260909042
 H          1.0626582787       -4.6822132443        0.1659699927
 H         -0.3373135132       -3.9907643963        0.1345652514
 O          5.1928550772        2.8637458748        1.7768557730
 H          4.5082880322        2.7794628523        2.4595365204
 H          5.4879670629        1.9557164913        1.6082886594
 O          1.0997195004       -1.1368383126        3.9634801097
 H          1.3599812363       -1.6747613822        3.1883383320
 H          0.2309467182       -1.4877034082        4.2250593118
 O         -2.9658558045       -2.7007916166        1.9324804892
 H         -3.1392033960       -1.9388289538        1.3478704343
 H         -3.2574947633       -3.4713270946        1.4355837712
 O          4.3239172663        2.5562017420       -2.9298716904
 H          4.4163892548        3.0716752597       -2.1133713141
 H          4.9418954149        1.8176786692       -2.8539715973
 O          2.9420650335       -0.3672503569       -1.9480243799
 H          2.4533721725       -1.2128415671       -1.9994735503
 H          2.4727312034        0.2806866413       -2.5301307925
 O         -4.0031614234        0.2330199739       -3.0090170386
 H         -3.4202720443        0.6671678601       -3.6493319707
 H         -4.5501001164        0.9268859938       -2.6233295257
 O         -1.5357029492       -3.0298239623       -0.8285261642
 H         -2.4104236188       -3.4421677215       -0.7101649180
 H         -1.4138664711       -2.8540159729       -1.7767489731
 O         -3.6025602701       -0.6009581980        0.3459623463
 H         -3.1448111490        0.2037060757        0.0467244699
 H         -4.0330830147       -1.0216229813       -0.4319817607
 O         -2.2599178778        1.8882956137       -4.4077021242
 H         -2.3486806584        2.3908460875       -5.2177245539
 H         -2.4484421721        2.5112963559       -3.6623994244
 O         -4.0153909708       -4.0184567082       -0.3806327001
 H         -4.4859390261       -3.2827856527       -0.8222370553
 H         -4.4553219560       -4.8267963651       -0.6439116737
 O          6.2361161851       -1.5041029539       -0.7284106606
 H          6.0222652289       -0.9869591407       -1.5376641983
 H          7.1470372437       -1.7882001008       -0.8087991602
 O          4.0496712061       -2.6507325443        0.6244800326
 H          4.3870065751       -2.5264225651        1.5296377077
 H          4.7243564273       -2.2678479428        0.0434446087
 O          0.4043597075        3.2342939950       -2.1480622305
 H          1.0172131276        3.2710398943       -1.3798248560
 H          0.2265847648        4.1355026843       -2.4155032086
 O         -1.9247504508        0.3756972717        2.5667344173
 H         -2.7372379108       -0.0663085524        2.9293207098
 H         -1.2731118642        0.3119200802        3.2698314335
 O         -5.7331279122        0.3058434401        1.6852974949
 H         -5.6788004651        1.2703121173        1.6031875873
 H         -4.9405666634       -0.0347503175        1.2137332573
 O          3.6416566569       -0.3223884613        4.6410707020
 H          2.7203089019       -0.6258178133        4.6215324559
 H          3.6362427605        0.6053687588        4.3508334207
 O          5.0436772741       -1.8414764020        3.0548465152
 H          4.4855830177       -1.3053743855        3.6850882086
 H          5.7111446745       -2.2656433181        3.5944808916
 O          5.4214650901        0.1784243924        1.2763237788
 H          5.8145610805       -0.3036252060        0.5295643282
 H          5.3691034060       -0.4684242262        2.0041128311
 O         -4.0813091347       -0.7728458052        3.5956073016
 H         -4.8532269140       -0.3593369487        3.1709984054
 H         -4.0100774818       -1.6573466940        3.2084213225
 O         -5.5949908944        2.2906322574       -1.5941484995
 H         -6.3358644529        2.8254668227       -1.8845651240
 H         -5.4301073793        2.5229669249       -0.6507913883
 O          1.5035876314       -2.1541423810        1.5373778862
 H          2.3721914006       -2.1625379470        1.1025369956
 H          1.0995250040       -3.0443056755        1.3620133078
 O         -0.2611925967       -0.0587463361       -4.3553490126
 H         -0.9555363481        0.6162595566       -4.4152663909
 H          0.5681323008        0.4167478508       -4.2063928786
 O         -1.4382453267       -1.9903041356        4.1309709260
 H         -1.8409372248       -2.3995814244        3.3472875262
 H         -2.1505192196       -1.8547085292        4.7582570831
 O         -4.9673373897       -1.8208735201       -1.5990774228
 H         -5.8107681574       -1.3740677597       -1.3475121531
 H         -4.6212872394       -1.3040969787       -2.3453528887
 O         -6.8662020916       -0.1762159944       -0.7754162105
 H         -6.5287572028        0.6476033699       -1.1536038617
 H         -6.7264696459       -0.1051800827        0.1869135923
 O          2.8804441094        0.6493219677        0.5130279418
 H          2.8985022564        0.2226562752       -0.3705621124
 H          3.7931408600        0.5559981800        0.8569537290
