  191
       -320.31547324
 H         -1.2622772603        0.2475845898       -2.3999731905
 C         -1.2191671485        0.3317048297       -1.3154706400
 H         -0.3666701746        0.9567166217       -1.0386700114
 C         -1.0579880161       -1.0590479175       -0.7096472432
 H         -0.1264738133       -1.4844553421       -1.0818472396
 H         -1.8894285631       -1.6826741105       -1.0317418852
 N         -1.0156220598       -1.0847310528        0.7504590325
 H         -0.3136740484       -0.4395188466        1.0932880537
 H         -1.9130521466       -0.8080159323        1.1317405859
 O         -2.4228603847        0.9687081671       -0.9219604203
 H         -2.4416596933        1.0175572312        0.0499761063
 O          7.6246308675       -0.1857063068        0.1698587147
 H          8.5446185775       -0.3809084698        0.3434749254
 H          7.1294217102       -1.0410967994        0.2828638727
 O         -2.6419890726        2.9706645690       -2.6612020785
 H         -2.5934716872        2.2124308680       -2.0352509814
 H         -3.5699448990        3.2621610905       -2.5995360328
 O          1.6421175516        1.5001581351        0.4195505711
 H          0.8475168328        2.0608412002        0.5350965466
 H          2.3730409156        2.0179588333        0.8220212203
 O          0.4109518552        1.2291881404       -4.9278789877
 H          0.4378847304        1.7996182885       -4.1338740839
 H         -0.5414723984        1.1921257925       -5.1451847402
 O         -0.4465099922        1.0904648735        3.6021783027
 H          0.3253765113        1.7008516479        3.6011627494
 H         -0.0861140089        0.2121684839        3.7746411284
 O         -1.6731655744       -2.5248646831       -3.5557390299
 H         -0.8744646955       -1.9713050071       -3.5648149567
 H         -2.4224389347       -1.9128378012       -3.5363746662
 O         -3.5538443131        4.4170752057        0.7312635514
 H         -3.9009034255        3.5197835419        0.5840920494
 H         -3.4809117962        4.4949119526        1.6876058839
 O         -1.4984156221        4.7898040382       -0.9992292849
 H         -1.9010125716        4.2530596595       -1.7101225003
 H         -2.2218811301        4.9419992641       -0.3650156426
 O         -2.4065975011        1.3879036607        1.8608507102
 H         -1.6678448175        1.2557221593        2.4996269610
 H         -2.9836975741        2.0793303086        2.2649609097
 O         -2.0991212162       -4.5737837177        2.8362711027
 H         -1.5416986798       -4.2790378277        2.0658734307
 H         -1.7027957566       -5.3836301201        3.1575994595
 O          1.6176022864       -3.2092431160       -4.7396676781
 H          1.2149652683       -2.3874465152       -4.3583101920
 H          1.1058161497       -3.4236545160       -5.5191931980
 O          1.2254449521       -4.7743376361       -2.4990945059
 H          2.1181612308       -5.1598499708       -2.3601872642
 H          1.2730370565       -4.3456991250       -3.3712711478
 O          3.7571242196       -2.5331286254       -3.0827183017
 H          4.1950520585       -1.7380087818       -3.4213888003
 H          3.1523046140       -2.8286873102       -3.7780050731
 O         -4.5745487013       -4.3019020067        1.6913464618
 H         -3.7622486968       -4.4689247310        2.2015768464
 H         -5.0010358290       -3.5389615435        2.1105438735
 O         -0.5671225605       -3.6934223698        0.9175697753
 H         -0.8239998308       -3.9562313718        0.0115986009
 H         -0.6691173388       -2.7026491516        0.9450313120
 O         -1.7870440486       -2.0801590403        3.9805773354
 H         -0.8555089598       -1.8744914673        3.8023238081
 H         -1.9465982872       -2.9812654353        3.6600862840
 O          0.8776370996       -1.4235983230        3.5672873262
 H          1.2956685216       -2.2462203177        3.8789992305
 H          1.2227222624       -1.2999264742        2.6577084582
 O          2.6243710921        0.3669390332        4.9697362311
 H          3.5343858330        0.1373452402        4.6914318941
 H          2.0423719458       -0.3080001840        4.5920373793
 O          3.8485961489       -5.2122074409       -2.1017206432
 H          4.1036645245       -4.3455715460       -2.4472781147
 H          3.8874910330       -5.1279925907       -1.1359553553
 O          1.9398409272       -2.6399407404       -1.0491204046
 H          2.6430318430       -2.3984949116       -1.6816435155
 H          1.4673754351       -3.3804807944       -1.4894621718
 O          0.6335228896       -1.0488317500       -3.6279493322
 H          0.5374532270       -0.2591086648       -4.2135933003
 H          1.1624863428       -0.7276473942       -2.8716766850
 O         -3.7165550906       -0.3036801718        3.7035766497
 H         -3.4038872992        0.1712027533        2.9149315591
 H         -3.0221541942       -0.9760430360        3.8879525333
 O         -7.6642796573       -0.4031438416        1.4544890521
 H         -7.2748793820       -0.4546534363        0.5430097327
 H         -8.5836002870       -0.6554148924        1.3722481168
 O          4.0494522500       -2.4641039158        2.3952254029
 H          3.4248233800       -1.8551356165        1.9461951541
 H          3.5114524801       -2.9303683312        3.0619508936
 O          3.4379183695        4.0452873224       -2.8123844025
 H          2.7042833405        4.2822295868       -2.2179946169
 H          3.1519209455        3.2706251800       -3.3212964007
 O          0.1740705541        4.6165117069        2.8270402293
 H          0.6750731839        4.0363107780        3.4174250616
 H         -0.1531859328        4.0324639489        2.1166880999
 O         -5.5826985786       -2.7530354468       -2.2922833253
 H         -4.8726374678       -2.9925153011       -1.6461952651
 H         -5.8255688405       -3.5604378089       -2.7436879163
 O         -4.8277841087        1.9872157395        0.3188032096
 H         -5.4248066440        1.9568077658        1.0862170173
 H         -4.4458256212        1.1020896124        0.2322190172
 O         -3.9395450584        3.0794130870        3.1999422011
 H         -3.5031079757        2.8024959815        4.0418718203
 H         -4.8157235998        2.6790470621        3.2080350295
 O          6.0918901035       -2.3250070532        0.4394697087
 H          5.6784661136       -2.4264698356        1.3059457199
 H          5.3844556804       -1.9772059736       -0.1319565131
 O         -4.1947130479       -0.8036188118        0.4845873622
 H         -4.6485162450       -1.2037657485        1.2585574800
 H         -3.8338160863       -1.5636112589       -0.0043098322
 O          3.3854484372       -4.3322127202        0.4731663583
 H          3.8825819801       -3.8012111992        1.1147014924
 H          2.8380821997       -3.6878089521       -0.0289494612
 O         -5.7460428961        1.1161430338       -3.0387970535
 H         -6.1345900481        0.6834578800       -2.2608058323
 H         -5.6562504436        2.0494638658       -2.8238342890
 O         -6.4445127227       -0.5339351820       -0.8977456072
 H         -6.4326296580       -1.3331686533       -1.4476309370
 H         -5.5520571565       -0.5341404412       -0.4718254108
 O          2.1183338678        5.5908503646        1.3144362901
 H          1.3532889599        5.3614303920        1.8986417719
 H          2.9029222002        5.3849624845        1.8257002581
 O          3.5890481279        2.7778186285        1.6790982053
 H          4.2661242784        2.0758266706        1.6874427458
 H          4.0204085341        3.5534709811        1.2663428769
 O          5.7254526407        3.3888603636       -1.7882250218
 H          4.8326703702        3.5953329637       -2.1943374890
 H          6.3621731591        3.9045435454       -2.2841986672
 O          1.3815581522       -5.1585775719        2.0701379322
 H          2.1404818910       -5.0859811985        1.4554937707
 H          0.6687600848       -4.6497734961        1.6357010676
 O          2.0679243874       -1.0543011221        1.1936711574
 H          1.9810814426       -0.1156725865        0.9334699525
 H          1.9182990008       -1.5775748251        0.3877792518
 O         -0.5260544181        3.0074282532        0.7412769536
 H         -1.3102697342        2.5066992855        1.0256921594
 H         -0.8134001769        3.6584090236        0.0655276818
 O         -2.6787326243        1.8113773595        5.1523433944
 H         -1.7712731966        1.6833367412        4.8330290978
 H         -3.1381735438        0.9801761970        4.9443358090
 O         -6.5124163083        1.8468415176        2.4675009563
 H         -6.9439714699        1.0097063443        2.2074827321
 H         -7.2078150468        2.4979933785        2.5652213818
 O          3.0472749989        1.6154503989       -4.0843102581
 H          3.7323833493        0.9560551232       -4.2795400245
 H          2.3113916350        1.4694267376       -4.6926802530
 O         -5.1458252869        3.6063892420       -1.8104054556
 H         -5.0921630737        2.9884663561       -1.0514820013
 H         -5.0943291204        4.4861803104       -1.4316530822
 O          6.3398887102        0.7568902034       -2.0515596866
 H          6.9465070167        0.4901437897       -1.3364424949
 H          6.1226170562        1.6991590022       -1.9010370355
 O          4.3698214512       -0.6239418356       -0.7505392019
 H          3.5030128506       -0.3946039886       -1.1513693100
 H          5.0340393296       -0.1865756707       -1.3106106298
 O          5.0516911941       -0.2906675897       -4.1654050910
 H          5.5741310193        0.0780466029       -3.4235023693
 H          5.6748506841       -0.5008299664       -4.8611528747
 O          5.2801702546        0.7260036980        1.3819746159
 H          6.2112296207        0.6983368031        1.1290579464
 H          4.8145415747        0.1939650807        0.6985089637
 O          2.1746709707        0.2989870756       -1.8872503258
 H          1.8750474541        0.8480044029       -1.1343121346
 H          2.4480116598        0.9148229072       -2.5937833859
 O          5.0014965187       -0.3639781039        3.8943933882
 H          5.1547663678        0.1976265156        3.1173265646
 H          4.7978173788       -1.2358562039        3.5194623776
 O          0.3162074403        2.6543208158       -2.6474630946
 H          0.7429508436        3.2820835397       -2.0432607176
 H         -0.6029467899        2.9272871368       -2.7240985900
 O          1.7732351431        2.5559650984        3.7417215511
 H          2.4236864307        2.6692519329        3.0284170516
 H          2.1556960297        1.8701128136        4.3351988603
 O         -3.6698605021       -3.2751817549       -0.5418687492
 H         -4.0255096303       -3.7429866675        0.2584196457
 H         -2.9297153411       -3.8028498295       -0.8724051806
 O          1.3770636311        4.6369433931       -1.0629767501
 H          1.7049031142        4.9099487227       -0.1764696093
 H          0.5206332454        5.0744967022       -1.1423131336
 O         -2.2726768908        1.1548381330       -4.8038342021
 H         -2.4751502435        1.8658739086       -4.1752543266
 H         -2.7879771895        0.3914705780       -4.5140291624
 O          4.8128303799        4.7868939054        0.3917074338
 H          4.1612637891        5.3584829280       -0.0230537344
 H          5.2384748168        4.2774237260       -0.3215775915
 O         -3.8835810141       -0.8029821425       -3.4466868602
 H         -4.4691068734       -1.5334592111       -3.1996527184
 H         -4.4554354408       -0.0161612849       -3.3505187974
 O         -5.5354332813       -1.8385116718        2.5639300154
 H         -4.9998702908       -1.2888000987        3.1811149884
 H         -6.3824745357       -1.3936345189        2.4286416201
 O         -1.3285013822       -4.3253007631       -1.6102882353
 H         -1.4804690723       -3.6733289157       -2.3336290965
 H         -0.5180701004       -4.7819627158       -1.8790945570
 O          2.2516476626       -3.7059345646        4.0159847831
 H          1.8799678919       -4.3153015231        3.3042965919
 H          2.3991431881       -4.2410911638        4.7941355150
