  129
       -218.89050000
 O          6.9634731124        1.3109125194        0.3314463386
 H          6.4483091616        1.3006725032       -0.5085021983
 H          7.1924951022        2.2259017891        0.4976014956
 O         -4.5842686147        0.6999693169       -3.7982924696
 H         -4.6393660053        0.7943096087       -4.7488146975
 H         -3.7393640325        0.2267160670       -3.6008887358
 O          4.0107397246       -1.0358287933       -1.0260625203
 H          4.0971224800       -1.5657361954       -1.8331680234
 H          4.3765486982       -1.5604223410       -0.3004893737
 O         -6.4587552394       -1.3399666129        1.2144298832
 H         -6.4467704396       -0.4518291174        0.8065276870
 H         -6.1892188085       -1.9435030762        0.5108739792
 O          2.4502738065       -1.4556918071        2.3076032798
 H          3.3234634715       -1.8552479343        2.2087756936
 H          2.4871490281       -0.6188442100        1.8031177685
 O          2.2015294388       -0.1443290966       -3.8803305522
 H          2.8521995196        0.5863968685       -4.0342627896
 H          1.9469865191       -0.0821757364       -2.9426461337
 O          1.7385115999       -2.7874696817       -1.6703665745
 H          2.3169670211       -2.8996187309       -2.4348921904
 H          1.8076364437       -1.8478931331       -1.4280841066
 O         -4.7014591373       -2.1817117041       -0.9306130939
 H         -4.2112744413       -1.3504061212       -0.7177938225
 H         -5.4249613149       -1.8562142764       -1.5091164121
 O          5.1001571371        0.1468168340        1.8383118821
 H          5.8548625011        0.5897375993        1.3916614283
 H          5.2156852248       -0.7981220267        1.6891010297
 O          3.7575478777       -2.2750239537       -3.5093795320
 H          3.2087371277       -1.5091915386       -3.8006096889
 H          4.4107669202       -2.4261755026       -4.1917731487
 O          5.2248645535        1.2691099916       -1.7016136761
 H          4.7231815749        0.4816616577       -1.4041099656
 H          4.6829977225        2.0639865206       -1.4739490834
 O         -6.4385514974       -0.6448368945       -2.2459830446
 H         -5.8661954854       -0.1705672660       -2.8730104562
 H         -6.6389329446       -0.0003371181       -1.5573539873
 O         -0.9557707151        2.6675295693       -3.7047267824
 H         -0.7575585383        1.8419520451       -4.1686777952
 H         -0.1983951794        2.8361111168       -3.1188839431
 O          0.1198114298        2.1258760253        3.0877301017
 H         -0.7553328184        2.2277861804        3.4947246372
 H          0.4738474171        1.2902712014        3.4569002736
 O         -3.9619065785        1.5461591128        2.1308070703
 H         -3.4619440445        1.8758223145        1.3592623099
 H         -3.9458352395        0.5714474525        2.0970341702
 O          2.4331803877        3.5308340421        3.7163996047
 H          2.9920298697        2.7783583226        3.9896595777
 H          1.5322746902        3.1694651881        3.6648766523
 O         -0.2491054818        0.2019842817       -4.8820749302
 H          0.6690990488        0.0501331126       -4.5602777713
 H         -0.2341334204        0.0739609579       -5.8302940449
 O          2.9445772585       -4.2418254152        0.2933756652
 H          2.5248822576       -3.7842594302       -0.4632358204
 H          2.2360025077       -4.3388992565        0.9465417653
 O         -2.2896734360       -0.4087384050       -3.1032696433
 H         -1.5700571248       -0.2504581084       -3.7315549563
 H         -2.3523621959       -1.3845419676       -2.9657884700
 O          0.8802361442       -0.2374862582        4.1583160923
 H          1.3739593328       -0.8343578307        3.5729535848
 H          0.0055682597       -0.6224928312        4.2865711516
 O          0.7851589414       -3.6369379472        1.8964828502
 H          0.0517934722       -3.6743709208        2.5445229893
 H          1.3133575616       -2.8532183818        2.1246291257
 O          1.1434509763        2.7223163961       -1.8915262012
 H          1.2819498286        1.7643148112       -1.8064736287
 H          0.7108619430        2.9836374431       -1.0550740281
 O         -1.4381052930       -3.4128805163        3.3709127294
 H         -1.6009961308       -2.5429038207        3.7579890225
 H         -2.1647604631       -3.5831698177        2.7597636405
 O         -2.7431100978        2.9618107581        0.1496460470
 H         -2.9753064995        2.7839942621       -0.8026577438
 H         -3.1011578388        3.8311758193        0.3335911953
 O         -0.6418732893       -3.4860462766       -0.4027885829
 H          0.0746849571       -3.3624134814       -1.0419516353
 H         -0.1662583355       -3.6278293286        0.4426051810
 O         -3.3133305798        2.7714573787       -2.3756974778
 H         -3.9002294465        2.1282279251       -2.7983806934
 H         -2.4860293393        2.7822076054       -2.8986475353
 O          2.6465667918        3.5078028560        1.1178306639
 H          1.7402576948        3.7356900545        0.8758843524
 H          2.6917971402        3.6324877933        2.1030724867
 O         -2.5791361310       -2.9486035676       -2.4425826144
 H         -3.4254038727       -2.8302790545       -1.9647051109
 H         -1.9327084080       -3.2358620085       -1.7853767257
 O         -2.3988789173        2.0052413609        4.1801446101
 H         -3.0322072262        1.9016402630        3.4167163885
 H         -2.8411657816        2.5407519074        4.8376881902
 O          3.6544292516        1.1278031413        4.1224772319
 H          2.8894795119        0.5569115508        4.2433893109
 H          4.1735813240        0.7756052902        3.3853175170
 O         -1.9806884676       -0.7088216681        4.0185197925
 H         -2.0284851505        0.2272583395        4.2774332821
 H         -2.8643631602       -0.9015253853        3.6571121370
 O         -4.0940889881       -1.2008545164        2.3968195443
 H         -5.0497904351       -1.2545109263        2.1650388230
 H         -3.6931109524       -1.9453247113        1.9236055071
 O          4.0472760433        1.7200838929       -4.0822886588
 H          4.6465827068        1.5076798008       -3.3330199805
 H          3.7778448523        2.6301382163       -3.9403309113
 O         -3.3911111367        0.1250740804       -0.6024603335
 H         -2.6570877563       -0.0676144535        0.0424681655
 H         -2.9794671624        0.1854060500       -1.4760918517
 O          2.7227192415        0.8597485111        0.8455295486
 H          3.6668476890        0.6740203978        1.0198167080
 H          2.6351738918        1.8354501473        0.9703041383
 O          3.7181947990        3.4125377886       -1.3646319285
 H          2.8117883473        3.2654269224       -1.6975181221
 H          3.5902579066        3.6218974673       -0.4259308908
 O         -3.1110107527       -3.4140487874        0.9732523741
 H         -3.8163374282       -3.2564920868        0.3279091114
 H         -2.3364739545       -3.6819591987        0.4601804588
 O         -5.8760316139        1.0541286904        0.0286650738
 H         -4.9836952311        0.8168927903       -0.2922164235
 H         -5.7177275693        1.5928246481        0.8107290939
 O         -0.0590714912        3.1132600656        0.5268289529
 H         -1.0176121418        3.0914725770        0.3458771396
 H          0.0302003167        2.7405338899        1.4232395369
 O          4.7800830594       -2.6325585594        1.1799442815
 H          5.5675196900       -3.1474125343        1.3572964244
 H          4.0951755506       -3.2901915647        0.8533653683
 O          1.5321216525       -0.0280121891       -1.3355004154
 H          2.0343589454        0.2411500190       -0.5318523334
 H          0.5782619827        0.0657179740       -1.1509399801
 O         -1.3576167063       -0.5405741966        1.2292519460
 H         -1.0217470535       -1.3916394996        0.9338236802
 H         -1.4580066137       -0.5898016824        2.1930535148
 O         -0.8988897083        0.8480083965       -1.1326892253
 H         -1.2546452062        1.4621343104       -1.7809799048
 H         -0.9988095805        1.2157910120       -0.2500837342
