  131
       -218.46408822
 H          1.3622226598       -0.9455099241        0.0205064943
 C          1.8025607274       -0.0411970210        0.4500058587
 H          1.6523031110       -0.0582421450        1.5306711165
 C          1.1256043487        1.1950366678       -0.1473202805
 H          1.3634569690        1.2671915751       -1.2090975525
 H          1.4955286732        2.0937018383        0.3501253456
 N         -0.3199121148        1.1399788916       -0.0122675281
 H         -0.6688613294        0.3197358753       -0.5033433158
 H         -0.5744235189        1.0421422292        0.9633868998
 O          3.2020099936       -0.0439239416        0.2302709009
 H          3.3259193442       -0.0616878649       -0.7474372528
 O          4.3183747710        2.1199821729        1.4871818545
 H          3.9088990801        1.3542150043        1.0354972118
 H          4.5249400431        2.7388651408        0.7701518321
 O         -2.0726176788       -0.7121921670       -1.3230052866
 H         -2.2549589212        0.0125451426       -1.9591292986
 H         -2.5479750957       -0.4635385487       -0.5125491615
 O         -5.3685199509       -1.2035686179       -3.0259020356
 H         -6.1186970595       -1.4283267752       -3.5760511363
 H         -5.3121917338       -0.2258635177       -3.0023797998
 O          2.0924281633        2.1872741614       -3.4670986255
 H          2.6657385715        1.4558926648       -3.1988129215
 H          1.2468595838        1.7594028182       -3.6970939013
 O          0.4292394062        4.6966059949        0.0862388186
 H          0.5621116739        5.6395400999        0.1830254641
 H          1.1534290801        4.3896720304       -0.5266203038
 O          4.9127587741        3.1944971094       -0.9467401598
 H          5.5609428895        3.7842150326       -1.3319013323
 H          5.2059694624        2.2826212261       -1.1774491369
 O          2.3331711534        4.0431769670       -1.5593852514
 H          2.1398020961        3.4416548359       -2.3114843688
 H          3.2222375503        3.7884587396       -1.2697381021
 O          3.0571693989       -0.2461584848       -2.4476772083
 H          2.2548252131       -0.7685243613       -2.6185191853
 H          3.8146090961       -0.8034784384       -2.6685174470
 O         -3.0942374464       -2.8303420061       -2.5127935130
 H         -3.8941075407       -2.4434663474       -2.8861546102
 H         -2.6450747964       -2.0813216239       -2.0480231788
 O         -2.4260278943       -4.4338696385       -0.3804468209
 H         -2.8460477846       -4.0179881175       -1.1521301265
 H         -2.8589083164       -4.0650331987        0.4000621593
 O         -3.2233747261        0.9146463469        3.3512011853
 H         -3.2787048661        1.8809071285        3.3132750363
 H         -2.2786063769        0.7309551052        3.4895969501
 O          4.7609096107       -3.6788197041        1.6539883192
 H          4.6096880058       -2.9018794667        2.2152009262
 H          3.9013098447       -3.8663163460        1.2518580825
 O          2.3442023401        2.4246194286        3.3116669862
 H          2.2820828416        1.5136427196        3.6207451486
 H          3.1059180083        2.4410549140        2.6977920265
 O          3.0371677602       -3.5016875977       -2.1346001406
 H          3.8373746822       -2.9732063338       -2.2659078614
 H          2.2835962138       -2.9741995235       -2.4509365649
 O         -1.2168162361       -1.5886921668        1.7061617474
 H         -2.1210915217       -1.9718603665        1.7296997211
 H         -1.2217736936       -0.7563992219        2.1957027709
 O         -6.1912230127        2.1301443705       -0.3106369017
 H         -5.4145319888        2.5953704925        0.0421642473
 H         -6.4247287565        1.4476450862        0.3418640153
 O         -0.5467008330        0.7308081190        3.1430452825
 H         -0.3595033073        1.6592465313        2.9062023625
 H          0.2651602242        0.3855676885        3.5504220652
 O         -3.5002962524        0.4248671870        0.6829838381
 H         -3.6119055523        1.3795940502        0.4815280079
 H         -3.4514616434        0.3925642140        1.6565427450
 O         -5.1005559527       -1.1503723808        3.3031898844
 H         -4.4847901070       -0.4489831213        3.5552216742
 H         -5.7673032141       -0.7194665099        2.7472303375
 O         -1.5902316135        3.2018485759       -1.0388412578
 H         -0.9950256178        3.9437482755       -0.8620845712
 H         -1.0888001967        2.4105072665       -0.6635233504
 O          1.0992879346       -2.5503619267        2.8232446232
 H          0.2256747141       -2.3620978641        2.4321355118
 H          1.6440816059       -2.9038806556        2.1026147133
 O         -3.6714875123       -2.6796206539        1.5763281886
 H         -4.2091975690       -2.3945660646        0.8184343212
 H         -4.1553448965       -2.3217408614        2.3474581521
 O         -2.6293362830        3.6185236995        2.9556883233
 H         -2.7447524583        4.4055770893        3.4877857838
 H         -1.6668977486        3.5326292200        2.7877925776
 O         -3.7309659183        3.0698239327        0.4696239637
 H         -2.9696305964        3.2280418924       -0.1433000602
 H         -3.4291342829        3.3555483219        1.3458065284
 O         -0.0695997798        0.5832722601       -3.7946486507
 H          0.0945518455       -0.2723143456       -3.3701997043
 H         -0.9817461722        0.8306163663       -3.6076065895
 O          4.1877640298       -1.1482886728        2.5491689338
 H          3.8126249003       -0.9407322387        1.6750927423
 H          3.5495442908       -0.8154605210        3.1934293316
 O         -2.6064236889        1.4237850754       -2.8377449041
 H         -3.5730887719        1.5090897321       -2.8380748622
 H         -2.2573306324        2.1802721862       -2.3332527676
 O          5.9115988242        0.7493003501       -1.2576363214
 H          5.6673242393       -0.0553113203       -1.7316438813
 H          6.1362930410        0.4773882255       -0.3501539026
 O          1.8555138703       -0.3940807084        4.0121142502
 H          1.9040505550       -0.5955012742        4.9473494995
 H          1.5804455434       -1.2556384616        3.5629770310
 O         -0.0077121787        3.3138591850        2.4127949185
 H          0.8870700979        3.1629495825        2.7889668685
 H          0.1359021163        3.7526974018        1.5518353868
 O         -6.8438563003       -0.0402405636        1.3340339223
 H         -6.3641124566       -0.6407972663        0.7160003907
 H         -7.7503141308       -0.3444720989        1.3741728199
 O         -0.2492757152       -2.8971286724       -0.4320371302
 H         -0.9420385434       -3.5913274251       -0.4955248784
 H         -0.5977511536       -2.2758352865        0.2287716702
 O         -5.2225865350       -1.3680658600       -0.2838281642
 H         -4.5858870226       -0.6557017467       -0.0530643000
 H         -5.2743642552       -1.3998029379       -1.2528289370
 O         -0.8862868264       -3.5483208137       -3.9429097176
 H         -0.6781601587       -4.4335036280       -3.6399454255
 H         -1.7310616877       -3.3083173380       -3.5110015679
 O          6.3182277791        0.1674647264        1.4399026866
 H          5.7433287852       -0.4118248933        1.9695316552
 H          5.9569389433        1.0512893495        1.6077423621
 O          5.3136763059       -1.8490558700       -2.3586982211
 H          5.9477474104       -2.1692794561       -3.0008966513
 H          5.6873681574       -2.1031756675       -1.4611388067
 O         -5.3703523871        1.4785298504       -2.7012762444
 H         -5.7937212319        2.1160606895       -3.2764332169
 H         -5.6898059972        1.6886270787       -1.7784915322
 O          6.3602628368       -2.4007905756       -0.0614693393
 H          5.8199526638       -2.9735238192        0.5345695206
 H          6.5932249996       -1.6198596392        0.4529709208
 O          0.7991342378       -1.8892025615       -2.6833488981
 H          0.3887016162       -2.1424020985       -1.8267811693
 H          0.2922313115       -2.4214370432       -3.3325982955
 O          2.2406033859       -3.4927782614        0.4434898329
 H          1.2982889897       -3.4603637532        0.1929735602
 H          2.6822276162       -3.5861463839       -0.4248653968
