  387
       -651.64587453
 H         -1.8499197467        1.5555272378        0.6218216033
 C         -1.4463837245        0.5451813288        0.5811008174
 H         -1.7552540894        0.0142418979        1.4784356881
 C          0.0625283809        0.6147760163        0.4795092324
 H          0.4488843603        1.1608783784        1.3325290396
 H          0.3434678694        1.1326502382       -0.4342422856
 O         -1.9981866385       -0.1747438078       -0.5075827120
 H         -1.8051827158        0.2904681239       -1.3603728573
 N          0.6616069052       -0.7323247350        0.4394618150
 H          0.3669080253       -1.2277700195       -0.4334810049
 H          0.3962064852       -1.3237480307        1.2532073487
 H          1.6959339487       -0.6208060106        0.4119086882
 O          4.4162407606        0.9274877615       -6.5254596308
 H          3.9650723736        1.6419296497       -6.0510985501
 H          5.3578697706        1.0429023015       -6.3408271836
 O          3.7107709709        4.3842632382        4.2820441052
 H          4.4594073328        4.9361554627        3.9974666653
 H          4.0790415645        3.4898149701        4.4027892788
 O          2.3474212421       -1.8680570578        2.7294080177
 H          2.5182249594       -2.7998122516        2.9489228119
 H          3.2046122773       -1.5967958503        2.3466163812
 O         10.0149657210       -0.4976833140        2.6158272167
 H          9.4957078357        0.0026349682        3.2602260407
 H          9.5653112222       -1.3565997945        2.5351080308
 O          3.3498787799       -0.4216223802        0.4866378530
 H          3.4383570067       -1.2896557932        0.0354679383
 H          4.0145372524        0.1355148449        0.0436372147
 O         -0.1221990039        2.3071288777        3.2476750910
 H         -0.0339710737        1.3964393711        3.5624369404
 H          0.3905770327        2.8706169967        3.8661148432
 O         -5.7944913155        0.4752638622        1.6762081315
 H         -5.9216458050       -0.4933516701        1.7269178276
 H         -5.2303638542        0.7265073082        2.4340532334
 O          2.5635007895        3.7646190295        1.9411632889
 H          2.9144045985        4.0253136957        2.8197925694
 H          2.3757853232        2.8160450075        2.0168440958
 O         -2.4369676276       -0.8839087661        3.1119577858
 H         -2.9023220407       -0.7063412983        3.9497236852
 H         -2.8223099549       -1.6986723184        2.7451860586
 O         -0.5168369859        1.8217079247       -6.3331345552
 H         -0.5949955166        2.6880788616       -5.9135679879
 H         -0.1643492307        1.2157618338       -5.6491004258
 O          8.2372950608       -2.4562383145        1.8463242178
 H          8.4751018715       -2.8023113286        0.9731553699
 H          7.6678498989       -1.6753526772        1.6701403284
 O          5.9963028911       -1.9943769499       -0.1953793408
 H          5.8900343176       -1.0573294749       -0.4696810193
 H          5.2044307673       -2.4724726018       -0.4910686323
 O          5.1550943958        1.9177741726        1.5505064731
 H          4.8042343311        1.8437677368        2.4618492564
 H          5.6922601156        1.1200125526        1.3860025137
 O         -3.5387470595       -0.4969328141        5.5433189014
 H         -3.8907359148       -1.3965964630        5.6563623167
 H         -2.6596997564       -0.4690926549        5.9727796792
 O         -4.2935732963       -3.0976168043        5.3166445466
 H         -3.4772242771       -3.2908829665        4.7948976553
 H         -4.2795783888       -3.7030742103        6.0580477338
 O         -0.7677938431       -3.1172276312        6.5710728401
 H         -0.7653413999       -2.1590827787        6.7101349830
 H          0.1644532528       -3.3839779708        6.4289962632
 O         -0.4667586695        3.9078501919        1.1094916934
 H          0.3480278830        3.9575333309        0.5745738425
 H         -0.3393137682        3.2250325323        1.7859637278
 O         -5.4870646288        1.2111051245       -2.6259762711
 H         -6.3891762882        1.4332183103       -2.3383036472
 H         -5.1851191415        0.5084059221       -2.0061855761
 O          0.9544635159       -4.8679134277        3.1625088606
 H          1.5490897257       -5.3107668631        2.5414046167
 H          0.2044494133       -5.4569261591        3.3113636521
 O         -7.3086602684       -0.8683602236       -0.8150505938
 H         -7.6431553361       -1.0703295974        0.0753240770
 H         -7.2132447125        0.0999038577       -0.8533798321
 O         -3.2938514656        2.7572606118        1.6861390931
 H         -3.7324916939        2.3256362198        2.4274199693
 H         -3.8419347187        2.5950336304        0.9040859132
 O         -1.6667497276        3.4488667599       -1.2915338444
 H         -1.2937467928        3.6196222162       -0.4047030747
 H         -1.5539258167        4.2803619230       -1.7992079628
 O          6.4365537560        3.0663387790       -0.5864288647
 H          7.3243872186        3.0634933760       -0.1525263640
 H          6.5453774495        3.5517471858       -1.4075489150
 O         -4.4714926520        1.4058339534        3.8549081214
 H         -4.2864995632        0.7410058714        4.5380734821
 H         -5.2496243981        1.9448400273        4.1765730884
 O         -1.6749543788       -2.8322193617       -0.0274215813
 H         -1.5591329637       -3.3872222030       -0.8232753222
 H         -1.8253284824       -1.9181278386       -0.3207289519
 O         -0.9398473934       -5.4709053974        0.5966054218
 H         -0.6555944485       -6.3242082666        0.2698255108
 H         -1.2102490010       -5.6045081648        1.5387471771
 O          6.8430521334        1.1192777126       -5.1718589382
 H          7.6079201082        0.5466505804       -5.0261344302
 H          7.0335784451        1.9557101786       -4.7122588694
 O          4.4349139289        5.5918503637       -1.8360360529
 H          3.6236165649        6.1141923154       -1.8592404991
 H          4.5998144808        5.4188861930       -0.8883857065
 O          2.8951748073        2.5285655139       -4.8140647064
 H          3.5721472736        2.8151280011       -4.1629974867
 H          2.0507191747        2.7642178558       -4.3833494589
 O          0.1011529685       -1.6119798923       -2.0805566445
 H         -0.8395960330       -1.5481009221       -2.3535204193
 H          0.5424185754       -0.7890351504       -2.3338713446
 O          3.4362354316        2.3278759920       -0.5733017947
 H          3.9900296725        2.5601343285       -1.3400758736
 H          4.0403616009        2.2093660363        0.1835776726
 O         -6.5175342422       -2.4139691676       -2.8464908719
 H         -6.7825154091       -1.9072385368       -2.0513636038
 H         -6.8584270329       -3.3201605748       -2.7571944099
 O         -3.5545912548       -5.2968431696       -0.4223245449
 H         -3.8041157437       -4.3742943071       -0.6238193646
 H         -2.5882447609       -5.2860307915       -0.3154416544
 O         -5.1182940318        5.1429840724       -0.2155859725
 H         -4.9040741503        5.5945577778       -1.0477417224
 H         -4.8665141498        4.1986174303       -0.3987763364
 O          4.9993552012       -1.8105168767        2.3558376501
 H          5.4605317229       -1.7554591334        1.4991951575
 H          5.0280730803       -2.7435974197        2.6165114694
 O          7.1996866965        3.1728637919        2.8247728922
 H          6.4694258663        2.8115337379        2.2767115347
 H          6.9015399781        4.0539804981        3.0910641842
 O          3.4291439899       -2.6128450661       -0.9353626978
 H          2.6289976922       -3.1117739002       -0.7098729507
 H          3.4744527359       -2.5755204441       -1.9092694134
 O          3.6856240804       -4.1026341323        3.3983449430
 H          3.5081280900       -4.7006624442        2.6480860354
 H          3.5543698430       -4.5929578053        4.2101821067
 O          1.2088304037       -4.0846210203       -0.3579028434
 H          1.2056644926       -4.5917048302       -1.2041176054
 H          0.3432832173       -4.2940183589        0.0318678871
 O         -8.0967396154        1.4118177378        2.6823587683
 H         -8.3585419856        0.6528455206        3.2200615258
 H         -7.3120780329        1.1123169100        2.1720408907
 O         -0.5066915429        5.7055670479        3.2459833006
 H         -0.6772398912        5.1214361499        2.4807226761
 H         -1.3721880056        5.9288908928        3.6136775029
 O         -3.6053119661        3.1965367860       -3.6482741022
 H         -2.7231241196        3.3719451705       -4.0472814085
 H         -4.1619353757        2.7791842331       -4.3062487827
 O          7.0827358821       -0.0100988148        1.4393412706
 H          7.3705427978        0.2509082881        2.3427289832
 H          7.8068490183        0.2393721086        0.8429760904
 O          3.5305250654       -2.8762438330       -3.5876549999
 H          2.5724311079       -3.0170628965       -3.7734046310
 H          3.8845266599       -2.4635222947       -4.3941937936
 O         -4.4114012043       -5.7837693134       -2.9505696006
 H         -3.9924441426       -5.7524282220       -2.0667646401
 H         -3.8665731080       -5.2421781646       -3.5356691588
 O         -2.3772143936        3.0352766557        4.5246356969
 H         -3.1246860373        2.4321173051        4.3661136951
 H         -1.7024992688        2.8146426205        3.8515836162
 O          2.6972407656       -0.0744804251       -4.3286099853
 H          1.8424469496       -0.3806630759       -4.6611966104
 H          2.7624283535        0.8648839084       -4.6156910940
 O         -8.5026436596        4.0633655320        1.9154535804
 H         -8.4538309420        3.1339583566        2.1819421020
 H         -7.7649512228        4.5088162105        2.3502215044
 O          2.8713676656       -1.2044822466        5.2861957339
 H          2.6982175531       -1.3705050204        4.3354447815
 H          2.4010578953       -0.3801653712        5.4959032305
 O          1.5104151110        6.2740002687        1.4680403998
 H          0.9512593505        6.4258444626        2.2418936073
 H          1.8462302637        5.3666362380        1.5696786655
 O          5.8144894870        5.5595063938        3.0078224037
 H          5.4482686012        5.3436590838        2.1110992391
 H          6.0793092699        6.4780342097        2.9879159992
 O         -1.9004041058       -3.5299025243        4.2766935170
 H         -1.4488530896       -3.4138144665        5.1565258552
 H         -1.4092975519       -3.0007566663        3.6219027073
 O         -0.8107588569        6.6304907248       -0.1263504316
 H         -1.5476511659        6.2230855221        0.3676692034
 H         -0.0255094730        6.4605580049        0.4151694901
 O         -4.6231663761       -0.2844557602       -0.6273542923
 H         -3.6615731045       -0.1426084501       -0.5266078193
 H         -5.0557664570        0.1123287548        0.1515336942
 O          1.2080966336       -5.4985883359       -2.6058307081
 H          1.1069481809       -4.8089155620       -3.2874246774
 H          2.1535423660       -5.7401723968       -2.6384539447
 O         -2.7468986650        0.6980196480       -5.2693440628
 H         -3.6595585489        0.8578611902       -5.5392914919
 H         -2.1399251060        1.2145474941       -5.8351967407
 O         -4.2845226705       -2.8218794468       -1.2551617483
 H         -4.4949569194       -1.9583155249       -0.8380389763
 H         -4.9840555335       -2.9486100601       -1.9102848247
 O         -5.4857957128        0.7236982508       -5.2128381792
 H         -6.3968644794        0.4321876607       -5.3555252193
 H         -5.4751944415        0.9430455736       -4.2491023491
 O         -9.6876188603       -1.0261977379       -2.0141058206
 H        -10.1714235578       -0.3121680469       -1.5843346004
 H         -8.7622142219       -0.9242832699       -1.6920168916
 O         -4.2342001475        5.6436008160       -2.7593352980
 H         -4.8401443009        6.0227304352       -3.3951361102
 H         -4.0800715373        4.7072980834       -3.0313893512
 O         -6.5428830186        2.8340430341        4.4192783589
 H         -6.3377656714        3.6517600917        3.9374337777
 H         -7.2363022153        2.3844053934        3.9001665534
 O          5.2016228881       -4.8414689698       -0.0642918063
 H          5.6272513449       -4.6328134239        0.7854540701
 H          5.8985358994       -4.8003080848       -0.7351135475
 O          0.0895085874       -0.4209664139        3.7528085627
 H          0.6137737198       -1.1820143285        3.4684455483
 H         -0.8312097655       -0.6163279230        3.4526977818
 O          1.9798995568        6.6641697577       -1.1824440561
 H          1.1736508780        7.0779827213       -1.4994075955
 H          1.9875174017        6.7926486444       -0.2185042886
 O         -5.8968313333       -2.1736253511        1.5454425198
 H         -6.3623357135       -2.7493745553        0.9127289601
 H         -4.9605535491       -2.4906548928        1.5909046501
 O          0.6932694285       -2.1670483400       -6.4153553724
 H          1.1066627865       -1.3482372894       -6.7429881440
 H         -0.2582952545       -2.0526794775       -6.5480888101
 O          7.3361089384        3.1808137869       -3.4268325522
 H          7.6189002247        2.4286710667       -2.8349191605
 H          8.0786033871        3.7783746569       -3.5089619887
 O         -0.5727472003        2.3883772039        6.4110813475
 H         -1.3246210350        2.5970462166        5.8121035634
 H         -0.1265648274        3.2321010346        6.5276296382
 O          1.7245973692        0.1926060656       -7.2179482526
 H          1.1128843242        0.9381498283       -7.2165653064
 H          2.6234839388        0.5371679857       -7.2219564669
 O         -7.7099703880        1.7523574865       -1.2301810959
 H         -7.6314315134        2.7217448150       -1.0605336150
 H         -8.6090225465        1.5363846737       -0.9288543167
 O         -2.8283847702       -3.9303648137       -4.4780073517
 H         -2.1527329543       -3.7090409725       -5.1248305822
 H         -3.4678494609       -3.1993376551       -4.5318316737
 O         -3.3591088668        5.5274355231        3.8008865629
 H         -3.0744454002        4.6577585347        4.1357847285
 H         -3.1463224991        5.5450751448        2.8464339762
 O          8.7735104933        3.0742370347        0.6100255840
 H          8.4436037955        3.1450359579        1.5252064251
 H          9.2252412520        2.2231161020        0.5358941069
 O         -1.5792031241        1.2202262607       -2.7044885502
 H         -2.3519355023        1.2124212351       -3.2843309474
 H         -1.5425858970        2.1032380646       -2.2748035316
 O         -8.8725250117       -1.2203388729        1.3551316014
 H         -8.8127173222       -1.2534727878        2.3245331620
 H         -9.3583040277       -1.9971209719        1.0472735061
 O         -8.5299764146       -1.0297657497        4.0536745630
 H         -7.8199875824       -1.7134165331        4.1388996034
 H         -9.1246021594       -1.1559149917        4.7922438560
 O          4.7848629976        4.7361643222        0.7207632337
 H          5.3671697053        4.0176441859        0.3895401051
 H          3.9694676795        4.3062645656        1.0530310951
 O         -0.9383769944       -0.3655235451        6.2931731181
 H         -0.4577980982       -0.3595749635        5.4416091415
 H         -0.8270944144        0.5185959153        6.6629260833
 O         -1.4596851819       -4.4217217729       -2.1481615421
 H         -0.6998045942       -4.9692554281       -2.3592813912
 H         -1.9093838169       -4.2035049860       -2.9814762764
 O         -4.5164102066       -1.7396928516       -4.5784590065
 H         -5.2382210313       -2.0193390680       -3.9939088380
 H         -4.8169346269       -0.8856298363       -4.9446929599
 O          6.5104421989       -2.4796537570       -4.0813646047
 H          5.9645033114       -1.7440104054       -3.7123903410
 H          6.1419726252       -2.6320700711       -4.9566908417
 O          1.7016017825       -3.6959067082        5.6905835421
 H          1.4975160787       -4.0011416874        4.7955404348
 H          2.1768538809       -2.8492920158        5.6235074616
 O         -4.1890343533       -5.6230422584        2.1757728670
 H         -5.1558953672       -5.6220043411        2.3514685995
 H         -4.0908497532       -5.7230049134        1.2087784078
 O         -6.6746469705       -2.9032053493        3.9504743377
 H         -5.8714087325       -2.9552911913        4.4956719996
 H         -6.3695302243       -2.5960502467        3.0614558061
 O          6.3623432649       -4.2847289679        2.3483837199
 H          7.0987142943       -3.6398882314        2.2535407711
 H          6.6074832458       -4.8975026396        3.0391178929
 O          2.3465399075        1.0532025435        2.5501301208
 H          1.7447344654        0.5140175528        3.0779684555
 H          2.7783995898        0.4809305595        1.8944947134
 O         -1.1493768295        3.8248227358       -4.4857571688
 H         -0.4694053031        3.3625009579       -3.9454784848
 H         -1.1581952375        4.7220330602       -4.1280782721
 O         -7.8409105527       -0.5257339668       -4.4422898024
 H         -8.6975129241       -0.4275783218       -4.0195041033
 H         -7.4034720139       -1.2522467715       -3.9711854082
 O          2.8453614318       -5.4961531514        1.2132944941
 H          2.2618734601       -4.9581268706        0.6296281202
 H          3.6977781885       -5.5049502246        0.7558366042
 O          1.4057636633        4.0229392371       -0.8147492104
 H          2.1972766739        3.4840284827       -0.6090672667
 H          1.6909324100        4.9376597063       -0.9860769510
 O         -1.4620525486        5.8031222692       -2.5535682590
 H         -2.4092121831        5.9994316068       -2.6167451325
 H         -1.1612761432        6.2144947596       -1.7127367815
 O          9.5057089598        0.4054323492        0.1881353939
 H          9.8404878251        0.1229167787        1.0761786917
 H          9.8653045377       -0.2381202601       -0.4462768376
 O          5.4445364020       -0.5316417494        4.6579679265
 H          4.6869996880       -0.8926482118        5.1533535084
 H          5.3982029756       -0.9862719159        3.7873003131
 O          5.2270101799       -0.2498778783       -3.4968599692
 H          4.3183393392       -0.3119325945       -3.8384833249
 H          5.7377054974        0.2981669977       -4.1259313730
 O          5.4199796627        0.4807671760       -0.9645038487
 H          5.9588269883        1.2831180414       -0.8715684011
 H          5.3714753516        0.2846790079       -1.9203532245
 O          1.7303441813        1.2831115044        5.4258120255
 H          0.8871923569        1.6206903137        5.7835523767
 H          2.3937355806        1.9322668343        5.6638352146
 O          4.6042377768        3.2025096131       -2.8972974945
 H          5.5203125509        3.1452886070       -3.1986039827
 H          4.4833595611        4.1383050492       -2.5996786574
 O         -2.8325729635        5.3534883350        1.1730746443
 H         -2.7612281396        4.3861519087        1.3074453783
 H         -3.6665396179        5.4763818762        0.6816889145
 O          7.9133580007        1.0733302049       -2.0489243213
 H          8.1444439323        0.3863044037       -2.7061712295
 H          8.5290028014        0.9875885381       -1.3139066250
 O          0.9958178444        4.1456775645        4.8721823879
 H          0.4741643834        4.8230263828        4.3977646902
 H          1.9246746676        4.3916802366        4.7763491139
 O         -9.9147817550       -3.1114459512       -0.3747125493
 H         -9.9061151630       -2.3955659486       -1.0606428660
 H        -10.6903701383       -3.6460980561       -0.5399216470
 O          4.3409145253       -1.8222949987       -5.9905299565
 H          3.6636347869       -2.1813438607       -6.5668061808
 H          4.3306491770       -0.8591977483       -6.1467209618
 O          3.9161923569       -5.3694517745       -2.5719960280
 H          3.8739977606       -4.4879118639       -2.9930879756
 H          4.1346935129       -5.2096267215       -1.6450611554
 O         -0.2774143061       -2.6614506209        2.2114131830
 H          0.2619692673       -3.4387682857        2.4424322313
 H         -0.8124416301       -2.9002809127        1.4297821968
 O         -2.0198497181       -1.7292564147       -6.1571228949
 H         -2.6587411120       -1.9867980427       -6.8210443663
 H         -2.3443224854       -0.8752513285       -5.7904462697
 O         -6.8463102563       -5.0403899874       -2.4021510212
 H         -7.4239809320       -5.7338376867       -2.7187872150
 H         -5.9175509538       -5.3365395985       -2.6237919702
 O          6.6778175944       -4.6795882075       -2.4623896435
 H          6.0089170876       -5.3002611764       -2.7760671400
 H          6.6073356466       -3.9016385005       -3.0492433618
 O         -1.6662913839       -5.8847878595        3.1064092402
 H         -1.7731995598       -5.0426168958        3.6103780240
 H         -2.5805249902       -6.1474548238        2.9179987664
 O          7.8193088284        0.7424792136        3.8878751619
 H          7.6321976073        1.6918059881        3.7803290913
 H          7.1148707110        0.3587845424        4.4290054253
 O          1.8244467499        0.5764115989       -1.9336086768
 H          2.4562119789        1.0736791059       -1.3835442319
 H          2.3142541837        0.2565735456       -2.7183538443
 O          8.2621487143       -3.1486528040       -0.8282795672
 H          7.4066133433       -2.6726166023       -0.6690346401
 H          8.0195699099       -3.8907060440       -1.3961864784
 O          8.5991940622       -0.7364284286       -3.9222297524
 H          7.9510471678       -1.4641147979       -4.0029399875
 H          9.3089507967       -1.0670683151       -3.3506156732
 O         -4.2147872129        2.7725434036       -0.8345201625
 H         -4.6430039234        2.3426838949       -1.5988761620
 H         -3.3119315932        3.0213129299       -1.1223728767
 O         -0.0139303088       -0.0631072847       -4.4437407423
 H         -0.5639879852       -0.7647797559       -4.8011629648
 H         -0.5661588597        0.4107903091       -3.7887189939
 O         10.1052613509       -1.5059796991       -1.7236451087
 H         10.9471902101       -1.9598174017       -1.6904600965
 H          9.4206743409       -2.1495107380       -1.4045027517
 O          4.3614312201        1.7956311114        4.1029810415
 H          3.4844353550        1.5060957311        3.7787279333
 H          4.8142830240        0.9796329604        4.4200924174
 O         -7.3105809943       -3.9398897416        0.0559564506
 H         -7.0458137990       -4.4161233397       -0.7498250293
 H         -8.2393741221       -3.6873139423       -0.0732357543
 O         -7.7202783919        4.3186485224       -0.6525215013
 H         -6.8598203512        4.7383834185       -0.4968593474
 H         -8.1565673281        4.2973979094        0.2226391585
 O         -2.4412135976       -1.5134082877       -2.8124929302
 H         -2.9722092260       -2.0732912212       -2.2187682078
 H         -3.0098254631       -1.3670818470       -3.5822699872
 O         -6.8140397484       -5.2655975321        2.4594858198
 H         -6.9129574616       -4.5605396642        3.1191923112
 H         -7.0576659234       -4.8731833122        1.6045729288
 O         -5.8368849629        4.8989894278        2.7277226016
 H         -5.6318049957        5.0267167331        1.7945024940
 H         -5.0748990858        5.2542797817        3.2261083146
 O         -9.9701381257        0.9278443825        0.0717708297
 H        -10.1465144733        1.6742766548        0.6474010771
 H         -9.5797191384        0.2314609058        0.6376105871
 O          0.9689579985       -3.2441496065       -4.0163578560
 H          0.8301531115       -2.8525069817       -4.9040478271
 H          0.5746206667       -2.6585792812       -3.3342312350
 O          0.8382050201        2.7805513943       -3.0901224367
 H          1.0213662163        1.8842179571       -2.7391024229
 H          0.9607298845        3.3648790401       -2.3110497258
 O         -3.4896947020       -3.0785792561        1.8954711219
 H         -2.9040983571       -3.0893723609        1.1114663039
 H         -3.6763617057       -4.0168465081        2.1290327526
