  609
      -1033.90079100
 O          2.5041650621        4.7672397342        2.2077026942
 H          1.6712339882        4.2777004318        2.4249505845
 H          2.2233062414        5.7101792445        2.1390515530
 O          0.7549592285        1.2087968258        4.5365289063
 H          0.6510067486        0.2900321606        4.8329251564
 H         -0.1083579931        1.5054757572        4.2081131264
 O          7.8459572259        0.7538103635        3.1247209922
 H          8.7852439220        1.0199819853        3.1798598002
 H          7.6015198765        0.8136017178        2.1737206892
 O         -0.1929728990       -1.4727100917       -5.2223147558
 H          0.5657101983       -2.0749810894       -5.1820939134
 H         -0.9780461406       -2.0274404194       -5.3065198968
 O         -0.2802139652        0.4437932822        7.5011417724
 H          0.6556179995        0.2905127249        7.3356653251
 H         -0.7245340090       -0.4125341052        7.4181127466
 O         -2.7288816719        3.3886071626       -4.8420495317
 H         -3.3855090834        3.7045646764       -5.4953759305
 H         -2.8747145069        3.8956502202       -4.0205065295
 O          5.3994009687       -0.4529848475        7.6255666187
 H          5.8777807866       -0.3354384441        8.4451877999
 H          5.8416114100        0.1212959397        6.9555608917
 O          1.0248391732       -4.8203370253       -0.7934426827
 H          0.0479723558       -4.8440229503       -0.6315939983
 H          1.2873702283       -5.7437995639       -0.9591238987
 O          5.7686050351        2.4074958827        3.3104976406
 H          5.5904526926        2.8749705464        4.1396943742
 H          6.5902528060        1.8933456984        3.4141055297
 O          1.8289141553       -1.0640504930       -3.1680354705
 H          1.2452546032       -1.8394177091       -3.0310269540
 H          2.7483938009       -1.3748525293       -3.1030684694
 O         -0.3554958415        1.3622324017       -5.0621268132
 H         -0.8640807362        1.6461729851       -5.8252112362
 H         -0.2901846151        0.3940035349       -5.0921712754
 O         -1.1544135029        2.3253022198       -2.7108451147
 H         -1.0252962396        2.0650576470       -3.6402055223
 H         -1.9836984340        1.8876698237       -2.3961320433
 O         -0.5738175937       -4.0660227026       -6.7086249975
 H         -0.2227396223       -4.4903904541       -5.9087475244
 H          0.1675536740       -3.5922948737       -7.1368415374
 O         -6.8184818459        2.9694990558       -5.9487238888
 H         -7.6377442525        2.4388307333       -5.9819279528
 H         -6.9934301019        3.6225528394       -5.2495968076
 O          3.2881252207        2.4293872628        6.1451635472
 H          2.5207596436        3.0280579272        6.1892644792
 H          3.3097451055        2.1839909034        5.1841904750
 O         -3.0945132531       -0.1406291962        2.2685242855
 H         -2.2141344520       -0.3974484403        2.6026192800
 H         -3.4199579216       -0.9444987783        1.8222527207
 O         -1.4598391709        5.3935382783        3.5015393808
 H         -1.8966675189        5.2397924429        2.6477267433
 H         -2.0975810887        5.1943479674        4.2033227109
 O          4.8442583129        3.5975694235        1.1282122561
 H          5.1775129935        3.1201636662        1.9144140193
 H          4.9975856683        4.5344990431        1.3167802717
 O         -1.8074689683        2.1017693034        4.1876277632
 H         -1.6442457278        2.4396946106        5.0910118470
 H         -2.1330469721        1.1880573158        4.3074457729
 O         -9.0954974851        3.4600373201        3.0142315593
 H         -8.6031105041        2.8973891288        3.6518993757
 H         -8.8808650277        4.3584222628        3.2811731189
 O         -1.4353172131       -0.4804297144       -2.9785352106
 H         -2.1309726845       -0.1042335172       -3.5439681224
 H         -0.8591676038       -0.9753077071       -3.5768840816
 O          2.6215355611        2.1251146195        0.6323837993
 H          1.7879458768        2.5843127370        0.4223490727
 H          3.3064426420        2.8060432705        0.7339617078
 O         -3.9704358326       -2.1418254465        4.1006916828
 H         -3.2699206903       -1.4825055413        4.3057209703
 H         -4.4537022354       -2.2558209287        4.9332431894
 O          1.8676006878       -3.1807325579        3.5324286804
 H          2.1134529136       -3.6524405193        2.7121351721
 H          2.4241819454       -2.3846727941        3.5679602349
 O          1.2190937355       -6.4593880971        3.0535350574
 H          0.8928602129       -6.2806684300        3.9560625019
 H          0.7528773219       -5.7738107611        2.5115080812
 O         -1.2029220290       -3.5134719170        4.2782834312
 H         -1.9964493659       -3.5349837592        4.8339735637
 H         -1.1519306609       -2.6450122802        3.8302453209
 O          2.2061325073        0.1370420236       -5.4822292205
 H          1.9259350894       -0.4120173676       -4.7221323099
 H          2.9649910589       -0.3194188445       -5.8992273111
 O         -2.2267558870       -2.1326479512       -1.0845233572
 H         -2.4587294850       -2.9968440391       -1.4628352077
 H         -2.0469850392       -1.5118355135       -1.8280963631
 O          0.3682789451       -1.3916381134        5.1845245173
 H          0.7015435592       -2.0165788845        4.5262933602
 H          0.6040597723       -1.7689110034        6.0527571079
 O          3.0428039175        2.0627667857        3.5656608953
 H          2.1347301869        1.7438079242        3.7504620368
 H          2.9632102058        2.8256416727        2.9889473623
 O         -3.5408855550       -4.6254392854        3.1416122411
 H         -4.4240962841       -5.0496811586        3.1729931919
 H         -3.6817002800       -3.7222807622        3.4946862643
 O          7.2039251884       -3.7039180531        4.5401293805
 H          6.6384942147       -3.6607526291        5.3233370933
 H          7.7182526750       -2.8663910473        4.5457915591
 O          5.6576195851       -0.8600287932        4.1084277717
 H          6.1159552318       -1.0965772625        3.2786499594
 H          6.1291444364       -0.1186748332        4.5122694369
 O          3.4953560408        0.2132542906       -1.0754697366
 H          3.7100291763        0.5693479991       -1.9591533954
 H          3.2625274865        0.9735608443       -0.5114032344
 O         10.2963579189       -2.5059158906        2.4234115497
 H          9.6187932685       -3.1763907926        2.2496484738
 H         11.0959859727       -2.7902997034        1.9736645363
 O         -3.2483620480        2.1109192119        0.8967463907
 H         -3.1667022362        1.2606749928        1.3690890601
 H         -3.4337528234        1.9055915679       -0.0336278095
 O         -5.9023517273       -3.8529378171        1.0536969688
 H         -5.0931055204       -3.3084888578        1.0801898596
 H         -6.6360013769       -3.2472771966        0.8466378324
 O         -3.1962134045       -4.1916504159        6.0971632834
 H         -4.1391234158       -4.1184619635        5.8514610434
 H         -2.9825572730       -5.1277758043        6.0326031561
 O          1.5793055122        7.1102501731       -3.6003238717
 H          0.7889314201        7.4540384469       -4.0287297089
 H          2.0325530716        6.5604711587       -4.2654969549
 O          2.5944716071       -6.2680622118       -3.5033621024
 H          2.7976015389       -5.3935488308       -3.0868872158
 H          3.0758894938       -6.2550368969       -4.3395162744
 O         -0.4753503770       -4.7986236691        1.9909464260
 H         -0.2782782283       -4.0610558561        1.3856959896
 H         -0.7936447793       -4.3962026460        2.8143078736
 O         -5.1528337907        2.8162635058       -3.2060070580
 H         -5.9789876448        2.3700163748       -2.9871665141
 H         -5.2695025493        3.7559087469       -2.9886489557
 O          1.1566679778        3.9752281332        5.5530259650
 H          0.9605317439        3.5213396348        4.7108184499
 H          1.1281351991        4.9220641986        5.3337342457
 O          0.4773576083        3.4742740905       -0.3529846070
 H          0.4255895260        3.8639367232       -1.2410159351
 H         -0.3525797788        3.6619325207        0.0976898629
 O         -2.7809692981       -6.1191254875        1.0633319458
 H         -2.0763797449       -6.6815394557        1.4554531031
 H         -3.0667847175       -5.5272192132        1.7822041067
 O         -2.4072966049        4.5953598321       -2.4985950422
 H         -1.7544087300        3.8641890676       -2.4665506424
 H         -1.9009248410        5.4213768480       -2.3861477419
 O          8.9006967565        1.1908056230       -1.2282587870
 H          8.7215944284        2.1241264728       -0.9988941832
 H          8.7902410173        0.7039440545       -0.3915045588
 O         -5.1634030321        3.8361690805        5.1872622588
 H         -4.4961301184        4.3716111418        5.6405774976
 H         -4.6917753753        3.5481339892        4.3684901180
 O         -4.8156232247       -1.7540676878        6.7028763356
 H         -4.1265398504       -1.1707465247        7.0727034031
 H         -4.9259826711       -2.5030890241        7.2869220233
 O         -1.5205800521       -2.1537007051        7.2991030701
 H         -0.7101180827       -2.5960411876        7.5703772967
 H         -2.1139616478       -2.8371537338        6.9606525685
 O         -4.2600228921       -6.4595028472       -3.6761562876
 H         -5.2045182289       -6.5726461204       -3.7915928293
 H         -3.9184819105       -6.0293077363       -4.4950315109
 O          3.4172371967        2.7683796433       -6.8931560383
 H          3.3550916694        2.0155531152       -7.5263308383
 H          4.3600228449        2.8310447859       -6.6938312702
 O          1.3246532273       -2.4878826229        7.4333657762
 H          1.8765461087       -1.7219243541        7.6270567176
 H          1.9017369151       -3.1344271650        6.9698920368
 O          8.1113376755       -4.2139956531        2.0051898232
 H          7.4803290593       -4.8643195812        1.6068706326
 H          7.9539512941       -4.2795353260        2.9594662634
 O         -4.5254112955       -1.8597712603       -5.1841084053
 H         -4.9576085693       -1.0784310643       -5.5532720825
 H         -3.8225586156       -2.1444660737       -5.7924806630
 O          0.2131311761       -5.3590003680       -4.3711616920
 H         -0.4932511100       -5.8291513944       -3.8938653428
 H          1.0450134715       -5.8099686945       -4.1168612480
 O         -4.8626478287        1.2330201147        3.8342842878
 H         -5.4374310089        0.5968483777        4.2859816879
 H         -4.2282035807        0.7134140344        3.3097471765
 O          9.0735514118       -0.5616593391        0.9030317257
 H          8.2155263851       -0.8672627565        1.2792265432
 H          9.7566495447       -0.9833457244        1.4448852998
 O          3.0238992962       -0.8740394676        4.4637137428
 H          3.9685746296       -0.7428623241        4.2805848119
 H          2.8574570508       -0.5947240771        5.3789461834
 O         -7.7690857720       -5.3219027959       -3.0219425570
 H         -7.4174657490       -4.6787636010       -3.6560488436
 H         -7.0770818010       -5.4476835349       -2.3489037325
 O          2.7509953451        3.0315841627       -2.0142345393
 H          2.4394359080        3.0906314789       -2.9308317302
 H          2.5650990047        3.8834788307       -1.5834646720
 O          1.4231615134       -2.5024728980       -7.6849849666
 H          1.9642359344       -2.4684966551       -6.8863109314
 H          1.0862944353       -1.6022767572       -7.8239909857
 O         -0.3394615050        4.3919006888       -5.3625045912
 H          0.0059314616        3.9622603131       -6.1593145827
 H         -1.2312236548        4.0003710656       -5.2221300772
 O          2.3102023065       -2.2087269443       -0.5922961454
 H          2.8164677070       -2.3489657170        0.2293284988
 H          2.6454240861       -1.3681464323       -0.9466368486
 O          5.2257161469       -3.1994376625       -5.4150445961
 H          4.8995761414       -2.7355318379       -4.6080754218
 H          6.1789381600       -3.0654000413       -5.4300167382
 O         -8.2592394666        0.3427894010       -0.3295158809
 H         -9.1581476647        0.7026325799       -0.3207887173
 H         -7.9443949853        0.4628910292        0.5951501521
 O          3.7573499325       -7.0195230544        1.0228351623
 H          4.6832039028       -6.7004108156        1.0087823235
 H          3.6234895615       -7.4464656934        1.8706845084
 O          3.6951639009       -1.9824289592        1.6728668881
 H          4.2163873226       -2.6815517775        2.1035003700
 H          4.1810760557       -1.1408226228        1.7583377932
 O          5.0783320825       -3.9621264532        2.8608090446
 H          4.5025403679       -4.6497625961        3.2723066910
 H          5.8117802073       -3.8096060275        3.4846880746
 O          5.5730089841       -1.2851685309       -0.4251087927
 H          4.7390254753       -0.7709286863       -0.4665938586
 H          6.1384846465       -0.8197706478       -1.0695108876
 O          6.8721228181       -1.7016551961        1.8256589155
 H          6.3180444921       -1.5602501119        1.0226221178
 H          7.1579877876       -2.6286987707        1.8341963877
 O         -3.0969942277       -5.1366412655       -5.6745417291
 H         -2.3414215930       -5.4805342103       -6.1535214131
 H         -2.7545344503       -4.3647564062       -5.1712724268
 O         -4.3140884261       -0.9333819055       -2.6325070939
 H         -4.8098989208       -1.6758113224       -2.2167139770
 H         -4.1791833344       -1.2204518635       -3.5521850526
 O          6.5191714553        0.4353450931       -2.2645548309
 H          5.9571284786        1.1713842967       -1.9562914038
 H          7.4150462597        0.6790998440       -1.9719799813
 O          7.4438934310        4.9629729555        3.9174571298
 H          6.8418561699        4.5211094008        4.5374321744
 H          7.9683532171        5.5779685192        4.4308359125
 O         -9.0421939140       -3.9895297943        2.2682195478
 H         -8.7574894941       -4.6874511319        1.6539469386
 H         -9.5122990376       -3.3299825746        1.7354433196
 O          6.8660042036        1.1943265372        0.6847457176
 H          5.9640311054        0.9065790373        0.9349097244
 H          6.8249859209        2.1421299363        0.5495087805
 O          8.6801011754       -1.4781966413        4.3895558409
 H          9.4312793296       -1.7722799117        3.8573183736
 H          8.2435602012       -0.7715353230        3.8653246899
 O          0.4852198977        4.7381121191       -2.7351277462
 H          0.8667626934        5.6225576837       -2.8439203951
 H          0.2403883188        4.4428644967       -3.6244700667
 O         -2.3687081690        2.7362498292       -7.7803583521
 H         -2.3585762894        1.7694146481       -7.7109614731
 H         -1.4623882629        3.0089918183       -7.9499484264
 O         -5.2816276886        1.8223919631        7.0209913323
 H         -5.9654052217        1.2273806189        6.7002296438
 H         -5.1889971831        2.5253259447        6.3495891930
 O         -1.6290535987       -6.6007431725       -2.7807849006
 H         -2.5366746013       -6.7897583789       -3.0482724851
 H         -1.3762798452       -7.2386493999       -2.0874416197
 O         -5.1617155749       -0.2361401271        0.0446501149
 H         -5.2864118505        0.7205603375       -0.0921637783
 H         -4.3990747804       -0.5091462698       -0.4661507191
 O          2.4994509520        5.2730372562       -0.4731379807
 H          1.5784910671        5.5811299830       -0.3891720217
 H          2.7406653887        4.9591994155        0.4154219425
 O          2.1418849481       -3.1511006523       -5.0718220268
 H          2.3386449172       -3.9997906366       -5.4889920268
 H          2.5893705780       -3.2077863649       -4.2119019284
 O         -5.6729330161        2.4523295359       -0.3116499214
 H         -6.4551427434        2.5116219671       -0.8778648314
 H         -5.9538947108        2.6339561915        0.6055286180
 O          3.6493378502       -5.3373943861       -5.9102846640
 H          4.3096593424       -4.6396399860       -5.7205756797
 H          3.7431807645       -5.5645581180       -6.8344691979
 O          5.4136979447        3.8994595449        5.5688313602
 H          4.7183859241        3.3419709952        5.9879901951
 H          4.8876550339        4.6320661756        5.1874574882
 O          3.7955719551        5.6459912624        4.3160722673
 H          3.1266192950        6.1737525873        4.7585344701
 H          3.3131977302        5.1607273803        3.5993834446
 O          4.3566048173       -0.9351886003       -6.5912288184
 H          4.5477936930       -1.8696136099       -6.3953821146
 H          5.0191568437       -0.4374214943       -6.0763581988
 O         -6.2806552062        2.8453109871        2.2462572877
 H         -5.6711055406        2.3618185065        2.8503023835
 H         -6.5550829278        3.6743725102        2.6809008315
 O         -0.7927905727       -8.0619320780       -0.6479202966
 H         -0.9417385476       -8.0828415166        0.3050142088
 H          0.1616919002       -7.9419898894       -0.7627780421
 O          9.4879607733        3.6306205805        2.4504751094
 H          8.7393658242        4.0162887588        2.9239196239
 H          9.2357400453        3.6072626077        1.5102690220
 O          4.5113168357        0.5318132217        1.7780377311
 H          4.7241496744        1.0003985532        2.6011176223
 H          3.6823227385        0.9411876591        1.4827988936
 O          1.6225352383       -0.3546415617        2.2960921102
 H          2.0533325726       -0.2219474225        3.1606842564
 H          2.1608942223       -1.0417552038        1.8757416674
 O          6.6497673846        1.1249026060        5.8577279327
 H          6.4528610355        2.0558459728        5.9869326892
 H          7.6336741854        1.0305787269        5.8819557668
 O          3.6776806722       -5.9057045296        3.9425606181
 H          3.4623031906       -5.5459442977        4.8138643172
 H          2.8131062662       -6.1203657703        3.5280723754
 O          9.3772627926        0.0899977383       -3.8951886943
 H          9.2272623961        0.3483849541       -2.9763323406
 H          9.1102029821        0.8665516367       -4.4159433646
 O         -1.1345903994        6.9184362427       -4.6938665888
 H         -0.7778698469        6.0624282990       -5.0010248982
 H         -2.0967518356        6.8291051461       -4.8011795582
 O          1.8970965001       -7.3515604260       -1.0559301237
 H          2.6193751647       -7.3470937490       -0.4093450552
 H          2.2783289660       -7.2326634568       -1.9389339158
 O         -3.1953566481        0.2827876817        7.3606388755
 H         -2.5876897808        0.5952586593        8.0305042174
 H         -3.9271561409        0.9412997916        7.2727553394
 O         -9.4115097211       -4.0071005723       -1.3916617727
 H         -8.8752819488       -4.4925300737       -2.0666036290
 H         -9.6100718901       -4.6662631767       -0.7198394977
 O          0.6055053988        0.1634534041       -7.5954984996
 H         -0.3405137301        0.0266320857       -7.3946993778
 H          1.0929318868        0.1574557474       -6.7339468959
 O         -2.0558929770        0.0829199359       -7.0276890953
 H         -2.3135915990       -0.8283697962       -7.2318688895
 H         -2.4583741812        0.2746905552       -6.1438969539
 O         -3.6470079602        3.5881900060        3.0285515643
 H         -3.7751673901        3.0744482530        2.2084876934
 H         -2.9346040409        3.0854379224        3.4874511419
 O          0.2634005737       -3.1947387714       -2.8364554380
 H          0.3898424827       -3.8974968148       -3.5102403699
 H          0.4913484715       -3.6389352094       -2.0007281725
 O         -3.1119314247        0.7881239810       -4.7089336094
 H         -4.0808083424        0.7013098487       -4.8306593337
 H         -2.9625607860        1.7592791652       -4.6956072969
 O         -1.3571206256        7.0289108541       -2.0463327273
 H         -2.2592324533        7.3336535209       -1.8428213081
 H         -1.2087200587        7.1486474738       -3.0093594025
 O         11.3699127780       -1.2373016057       -2.4257448606
 H         11.5798366719       -0.3689783789       -1.9980862749
 H         11.0971224853       -1.0128348845       -3.3212248914
 O         11.6081910921        1.0517014095       -1.1194794246
 H         11.7608298751        0.7650734389       -0.2052104448
 H         10.6506560334        1.2287816117       -1.1832133704
 O         -1.5416071157       -4.7371197189       -0.8281388887
 H         -1.6789678619       -5.2823083061       -1.6208807929
 H         -1.9928249211       -5.2059145630       -0.1012596580
 O          7.8386837603       -2.0035737146       -4.8471703134
 H          7.4931045615       -2.3553967073       -3.9994996185
 H          8.5697330381       -1.4156217118       -4.5945999792
 O         -3.4166815052        1.4476392893       -1.7646554785
 H         -3.5950550635        0.5472649839       -2.0855257739
 H         -4.0475344560        2.0190006391       -2.2608101364
 O         -5.8342073711       -4.0547130201        5.3049775052
 H         -5.9399467355       -4.8002735105        4.6953535031
 H         -6.5097563686       -3.4238233762        4.9967491682
 O         -3.5380751546       -2.5425594954        1.1421489045
 H         -3.0953263085       -2.4017971199        0.2804572642
 H         -3.0517463385       -3.2316035100        1.6049265683
 O         -9.7403005763       -0.5646443858        3.3572584073
 H         -8.9867052563       -0.0583821492        2.9821639921
 H         -9.3352359685       -1.3129639078        3.8136057133
 O          0.5957057314        2.8996306486       -7.5182286811
 H          1.5324584395        3.1206609140       -7.5382941822
 H          0.5759401142        1.9302810975       -7.6539698588
 O          7.5187389834        3.5862795309       -2.7054605879
 H          6.7153888567        3.2159425573       -2.2786749029
 H          7.2874919486        4.5001743842       -2.8930017667
 O          2.7294288696       -0.0208716353        7.0582113732
 H          2.8127854529        0.9209154841        6.7876478198
 H          3.6136160963       -0.2391306090        7.3928937114
 O          9.5792228888       -4.2766878167       -0.3604969247
 H          9.1464410398       -4.3166604792        0.5027756508
 H          9.3040361228       -3.4165807210       -0.7675758051
 O         -3.9400078055        7.2704509110       -1.2413764428
 H         -4.4778364053        7.3192292884       -2.0348983114
 H         -4.0603542702        6.3575838470       -0.9080292449
 O         -4.7253364098        5.8647899769        2.0063099972
 H         -3.9969943929        6.4754204166        1.8000840218
 H         -4.3030590643        5.0514839970        2.3382689798
 O          0.8966518217        6.4718224465        4.4783232508
 H         -0.0056812448        6.2403237748        4.2075276352
 H          1.2512909846        6.9464700656        3.7104173776
 O         -8.9304485557        1.3880773618       -5.3346454815
 H         -8.6539782341        0.4595066515       -5.2716450635
 H         -9.4137889252        1.5433311086       -4.5140201517
 O          4.6825408629        3.7895686485       -4.0312994537
 H          5.2700981519        3.4485138773       -4.7378863264
 H          3.9926619770        4.3132596488       -4.4723246910
 O         -6.5623128968        5.7070844023        0.0317391782
 H         -5.8130318372        5.6316566435        0.6683269295
 H         -6.9031087628        6.5949025875        0.1382061716
 O          5.5421309913        6.0862885344        2.2078929055
 H          6.3374197975        5.7444341225        2.6478392180
 H          4.8828465693        6.1361497765        2.9207341947
 O         -6.6265479979       -0.3155499396        5.3247180396
 H         -7.1631212325       -0.9920058009        4.8851744005
 H         -6.0186093369       -0.8197944411        5.8966951195
 O          9.2713251701        0.7348263951        5.8623892051
 H          9.8091354271        1.1497307753        5.1756565492
 H          9.1968381059       -0.1951243265        5.5825882734
 O         10.4544830690        1.2985475619        3.2950583184
 H         10.3022382739        2.2135359827        2.9798896272
 H         10.9505119726        0.8365873358        2.6070826388
 O          5.7900400111        5.8529994241       -2.6992676958
 H          5.0825955264        6.4843917909       -2.4661679101
 H          5.3362538612        5.0985343324       -3.1316362712
 O          4.0080138555        1.0894909173       -3.5913440678
 H          3.2943948774        0.9567053261       -4.2367563137
 H          4.2638942715        2.0216331600       -3.6635372037
 O          8.6341568469        2.5679207536       -4.8658002445
 H          9.4303655228        3.0834294875       -4.9876766869
 H          8.2098303719        2.8933412322       -4.0316306127
 O         11.9929834265       -0.2237553520        1.3187540367
 H         12.8934965711       -0.1773657584        1.6405603517
 H         11.9060347464       -1.0911966224        0.8744806489
 O         -5.6980563722        0.6301562809       -5.2140679486
 H         -6.1461507749        0.5487758699       -4.3624014224
 H         -5.9823865381        1.4946293075       -5.5676749398
 O          1.9108229373        2.7770279042       -4.6341298875
 H          2.4580589083        2.5705588729       -5.4166221506
 H          1.0834436575        2.2804977884       -4.7582399093
 O          3.2210178250        0.6798581598       -8.5250285150
 H          2.2980474290        0.4013053009       -8.5377003920
 H          3.7076041002       -0.0025886037       -8.0374889603
 O         -7.6902494967        0.6386606590        2.2139443204
 H         -6.9767528545       -0.0109607237        2.3747454423
 H         -7.2892316956        1.5288157389        2.2856403022
 O         -4.4425387759        4.2473513746       -6.6796903216
 H         -3.8907522810        3.7987156469       -7.3384712087
 H         -5.2815297879        3.7660246131       -6.6206528282
 O          6.2391639141        0.1255288540       -4.9478612045
 H          6.3108513476        0.3371681597       -3.9934605491
 H          6.8716292896       -0.6102892751       -5.0857825499
 O          8.7656386171        3.6721432513       -0.1768566919
 H          7.9409969166        4.2147270399       -0.2436299772
 H          9.4247751529        4.1355655981       -0.6935124353
 O        -12.1575913944       -0.3772930978       -0.5726702741
 H        -13.0681213839       -0.2729783223       -0.2975915352
 H        -11.7049639110        0.4582394910       -0.3787840785
 O          5.3282177031        2.7020480514       -1.3881640266
 H          5.2890104158        3.1182060014       -0.5091047158
 H          4.4358919851        2.8492794606       -1.7645647849
 O         -4.5015725495       -7.6889658225       -0.0883493943
 H         -3.8457322185       -7.0956423471        0.3663209385
 H         -3.9870954726       -8.3272342361       -0.5818302930
 O          6.0919117393        2.5939147682       -5.9524895019
 H          6.0662925175        1.6584002021       -5.6567196242
 H          7.0315305324        2.8105950981       -5.8945634722
 O          3.1675863484       -3.8719739375       -2.5703600898
 H          3.9906092569       -3.9866181539       -2.0589231756
 H          2.5790775014       -3.4501579813       -1.9165195869
 O         -0.8061432978       -1.3934653251        2.6901836118
 H          0.0319930505       -0.9054104978        2.7780149343
 H         -0.6688916399       -1.8924694326        1.8584332847
 O          6.7756543607       -2.7960112495       -2.5147189111
 H          6.7654184398       -3.7238315685       -2.2296012612
 H          7.5098681464       -2.3827286716       -2.0252597400
 O         -2.1376564156       -6.5660025178        4.5097850205
 H         -2.5294612685       -5.8134030113        4.0271244154
 H         -1.3069915749       -6.2562500819        4.8894956218
 O         -7.8985240972        4.5650771068       -3.9579990465
 H         -7.9373774798        3.8878374987       -3.2359063177
 H         -8.7899778962        4.6886413226       -4.2812209042
 O         -0.1403497982       -2.6232728161        0.4819511448
 H          0.7207746319       -2.5246018259        0.0385554857
 H         -0.8498183505       -2.5693920011       -0.1915043283
 O         -6.8813340776        5.1885487288        3.5029864550
 H         -6.2134884812        5.6930642324        3.0112519499
 H         -6.4364282633        4.8987860605        4.3153321059
 O         -6.6998528553        0.3439946741       -2.5827695263
 H         -5.8357642307       -0.0940831232       -2.4438730590
 H         -7.1675799952        0.3209708274       -1.7273775146
 O         -6.0133896847       -5.5742586296       -0.9706271109
 H         -5.4689013283       -6.3469854409       -0.7612167078
 H         -5.8380510273       -4.8995935222       -0.2775049493
 O         -6.5961929597       -7.8904555719        1.6363973659
 H         -6.6237961483       -8.7735761001        2.0023287641
 H         -5.8651597246       -7.8722144204        0.9869631528
 O         -7.7730981478       -2.3142672381       -0.0766084691
 H         -8.4980245667       -2.8748538351       -0.4099908341
 H         -8.0852253926       -1.3917282745       -0.1129583548
 O          5.1395387959       -2.6834234904        6.0233523938
 H          5.2634570471       -2.0964594306        5.2467574856
 H          5.2166604145       -2.0864298806        6.7802177605
 O          4.8336426978       -3.8994559605       -0.5086221628
 H          5.1222157783       -2.9690158035       -0.4798696794
 H          4.1061810464       -3.9907743051        0.1346999329
 O         -7.6655562363       -2.4795023756        3.9388742382
 H         -7.0503300013       -2.1420684414        3.2583008731
 H         -8.1997741578       -3.1438705490        3.4481465547
 O          9.0081292930       -1.9071273270       -1.3424872092
 H          9.0248732529       -1.3559117460       -0.5248124238
 H          9.8288886215       -1.6839108117       -1.8311083533
 O         -7.8726954875        2.8261085897       -1.9829550164
 H         -8.4825089189        2.1080905671       -2.2494879393
 H         -8.2379666050        3.2071360350       -1.1615568756
 O         -8.2862204233       -1.0749166098       -4.2261157520
 H         -7.7316297301       -0.5748586769       -3.5860908372
 H         -9.0694113660       -1.3500125874       -3.7313868847
 O         -6.0098443740       -5.6016774407        3.0563523217
 H         -6.1820575492       -4.9413296596        2.3512600213
 H         -6.2618676045       -6.4569043878        2.6779394294
 O          6.6430642280        5.1924365539       -0.2898942509
 H          6.3220843149        5.4717573756       -1.1797239976
 H          6.4141901252        5.8785496062        0.3380220828
 O         -1.0657872719        2.9029759495        6.6300150046
 H         -0.8340169997        2.0285917349        6.9991002699
 H         -0.2116570332        3.3045948787        6.3659419671
 O         -1.8097082120        4.3529850877        0.9446593270
 H         -2.6138157797        4.6399462923        0.4539878979
 H         -2.0335302033        3.4248093425        1.1482135528
 O          6.0973686652       -5.6367242526        1.0683920204
 H          5.6224378735       -5.0422870959        1.7000002751
 H          5.9625422594       -5.2214814491        0.1943122369
 O         -3.8259841004        6.2392568760       -4.6898930053
 H         -4.1039870871        5.7499332662       -5.4742896283
 H         -4.3764743128        5.9234382660       -3.9623468420
 O         -2.1922694224       -3.1212035567       -4.1211956152
 H         -2.8961210678       -3.3854243766       -3.4930413827
 H         -1.3738823234       -3.1911643856       -3.6043497822
 O         -9.9022722663        1.2138523876       -2.6763379445
 H        -10.4975801970        1.5248287389       -1.9864063911
 H         -9.8757176507        0.2460649413       -2.5796806546
 O         -5.9353764314       -2.7818650015       -1.8444862187
 H         -6.6301940219       -2.5772304581       -1.1754869745
 H         -6.3651470724       -2.9875773829       -2.6984406156
 O         -5.8588776916       -1.2523114271        2.4078407022
 H         -5.0871316631       -1.5440248665        2.9317283934
 H         -5.5559774705       -1.0334775392        1.5056194036
 O         -5.7037288994        5.4582972854       -2.6411866542
 H         -5.9746912339        5.4532302600       -1.7046232830
 H         -6.5147300765        5.3982467592       -3.1660422937
 O        -10.2897418515       -1.8449165822        1.0012973508
 H        -11.0482927714       -1.4906016048        0.5266475475
 H        -10.2114814911       -1.3431472800        1.8329089237
 O         -2.7180397995       -2.5624750556       -7.1277927429
 H         -1.9298210574       -3.1238178308       -6.9295615029
 H         -3.2590825108       -3.0827897651       -7.7212126374
 O         -3.7461058004       -4.1709518262       -2.2629557654
 H         -4.5911319532       -3.7822826205       -1.9754293377
 H         -3.9629595381       -5.0448348009       -2.6237896658
 O        -10.5880733753        1.8429519758       -0.0111500898
 H        -10.0943888920        2.6730131928       -0.0133708524
 H        -10.8469509902        1.7359791405        0.9450350904
 O         -6.6953295345       -3.2156058414       -4.3662638078
 H         -5.8572424338       -2.8908234463       -4.7455139765
 H         -7.3404478066       -2.4897778398       -4.4869556623
 O        -11.1531595384        1.6695968231        2.5301945497
 H        -10.8411224755        0.8560371918        2.9531792573
 H        -10.5587924377        2.3720767817        2.8397918581
 O        -10.2063128506       -1.5165993985       -2.2813014329
 H        -11.0185891055       -1.3074640649       -1.8048161733
 H         -9.9520311852       -2.4023754051       -1.9691152739
 O         -4.0087928647        4.6421277623       -0.4780798238
 H         -3.4950830088        4.5130582970       -1.3101276501
 H         -4.5781010545        3.8545019887       -0.3898245529
 O          2.6505686179        5.2278798541       -5.2458977976
 H          2.1101829778        4.4395603015       -5.0039266265
 H          2.7621834855        5.1932283530       -6.1962501012
 O         -8.6057991899        3.8560029577        0.3682425460
 H         -8.7104792873        3.6174519902        1.3108970141
 H         -7.9046380091        4.5292737412        0.3419620072
 O         -2.1669613374       -0.4186420460        4.9804083532
 H         -2.4931010404       -0.2183383521        5.8776628397
 H         -1.2870041629       -0.8262733367        5.0907523380
 O         -2.7560003339        4.9181191086        5.9552713975
 H         -2.2264834431        4.1669469881        6.2852447600
 H         -2.5293542661        5.6707355510        6.5007675014
 O          2.6850187460       -4.4778028525        1.2241476148
 H          1.9929271096       -4.4970568637        0.5264166261
 H          2.9693703836       -5.4008986108        1.3117373518
 O          1.7607508947        7.2880601707        2.0013719587
 H          1.0860322557        7.1913097319        1.3113962197
 H          2.5371579908        7.7319698523        1.5888266435
 O          3.9913181957        8.1099611243        0.8338790506
 H          3.9538457380        7.9581931474       -0.1272095736
 H          4.6543998063        7.5085032715        1.1926145398
 O          7.3224437103       -5.2860425638       -1.5533545498
 H          7.3557878283       -6.1679915689       -1.9190709564
 H          8.2067478720       -5.0908027899       -1.1869789522
 O         -2.5982098106        7.3840865104        1.2221689358
 H         -1.6622927668        7.2233910987        1.0562399847
 H         -2.9845537340        7.6717312551        0.3873240213
 O         -1.0800965346       -7.7799828879        2.2747495502
 H         -0.1682998802       -7.4736214015        2.4300530188
 H         -1.5392448766       -7.6022380152        3.1185133375
 O          2.8119153618       -4.0460541843        5.8436500516
 H          3.6784303693       -3.6023738854        5.9402564916
 H          2.4533799931       -3.7349335098        4.9727904506
 O          0.3806976303        3.5164661806        2.9706967616
 H         -0.3448177256        4.1487287233        3.1383552081
 H          0.0463695893        2.8376341614        2.3617693537
 O          0.3167228297       -5.4069792796        5.3882446037
 H          1.0962734407       -5.1221744502        5.8724667728
 H         -0.0900959520       -4.5975911140        5.0153155363
 O         -7.6341725538        2.2476983786        4.8727643816
 H         -6.8274656684        2.7493815140        5.0326053720
 H         -7.4214674558        1.3119484298        4.9886737498
 O         -8.3377250756       -5.9411444826        0.4558079863
 H         -8.0742036711       -6.7144204895        0.9652180004
 H         -7.5878488576       -5.7770639865       -0.1481433634
 O          4.4784510066       -1.6325208761       -3.3584899176
 H          5.2184803429       -1.9479363011       -2.8132807069
 H          4.6522275704       -0.6993649933       -3.5557854675
 O          3.6774319323        7.2439694596       -1.7640406837
 H          3.0100952305        7.5007343604       -2.4142300095
 H          3.2845785373        6.4643027036       -1.3088861959
 O         11.8083417879       -2.6329260432       -0.0152348355
 H         11.9304395821       -2.2721599042       -0.9041355982
 H         11.1769080317       -3.3651508819       -0.1394836615
 O         -0.0166285948        6.3435923085        0.1536284831
 H         -0.5542993242        5.5954644410        0.4605355213
 H         -0.3959382511        6.6268497915       -0.7000180356
 O          0.5027945432        0.6208897212       -1.2668909700
 H          1.0104102200        0.1822476443       -1.9555004566
 H          0.0222023150        1.3440498396       -1.6964903975
 O         -0.4234103046        1.4845885703        1.7490888944
 H         -1.0113092023        0.9283815676        1.1938058683
 H          0.4339801973        1.0556259429        1.6502120297
 O         -1.5157920237       -0.1643181839        0.1252918735
 H         -2.1658687473        0.1156145982       -0.5128668613
 H         -0.6571882461       -0.0832571557       -0.3574351402
