  459
       -779.20905373
 O          1.7010278380       -1.3655899006        6.9120832945
 H          1.2122986600       -0.5216827516        6.9800377724
 H          2.6397601139       -1.1703505351        6.9963294988
 O          4.5565130871       -2.5980903962        0.6331612207
 H          4.3217341516       -2.3755464448        1.5589417425
 H          5.5020365318       -2.3760590040        0.5017968026
 O          1.1931582509        0.3496535392        2.8341383941
 H          0.3963026393        0.6902648636        3.2521351351
 H          1.9042758856        0.4125150579        3.5152288144
 O         -5.9122211007       -1.0190415320       -5.4609895515
 H         -5.5785612557       -0.6929983757       -4.6037581813
 H         -5.9074227269       -0.2538297527       -6.0387589357
 O         -0.3686457727        3.1753026807       -1.7152521760
 H          0.1329513169        2.4346608587       -2.0713719433
 H          0.0985388720        3.4473288699       -0.8909236682
 O         -4.9946573098        5.3962334983        0.1914805877
 H         -4.9830743945        4.4481718826        0.4331120514
 H         -4.5556395455        5.4727199588       -0.6732095938
 O         -3.7753371887        5.4052880240       -2.2348536768
 H         -2.8310658554        5.5087414207       -2.4385800807
 H         -4.2284232428        5.2150829912       -3.0620965266
 O          4.4241398906       -1.3219896061        6.0841394157
 H          4.3349305926       -2.2446181521        5.8037238884
 H          5.3303284003       -1.0706217383        5.8587438762
 O         -2.7780258617        1.5197640976       -2.6790958528
 H         -2.4222172529        1.2420743173       -1.7762165926
 H         -2.0530762801        1.9155928077       -3.1713759348
 O          0.3206026127       -5.9378135641        2.0734755599
 H          1.0021888580       -6.4910300182        1.6696165880
 H          0.2217350308       -5.1688308461        1.4693090533
 O         -4.8888013971       -3.7510832321        0.1423197143
 H         -5.2227305089       -4.6606236073        0.1105519383
 H         -4.0257958960       -3.8260382693        0.6051039261
 O          2.5582779156       -1.3684826102       -2.9352346019
 H          2.4296396499       -1.8562380118       -3.7720648528
 H          3.5185964065       -1.2233817646       -2.8616638684
 O         -2.4492244191       -3.3029370313       -4.9611929097
 H         -3.3594733422       -3.6341372336       -4.9567783700
 H         -2.4921136746       -2.5261825982       -4.3536460711
 O          0.1979601187       -4.1119537627        0.0601790384
 H         -0.3541792234       -3.2982493285        0.0367101649
 H          1.0950987051       -3.8105575238       -0.1674294099
 O          1.3490250302       -2.1607634586        4.4322157447
 H          1.5593147777       -1.9353366034        5.3684730940
 H          0.4350659663       -1.8440023498        4.3106901485
 O          3.6951514296       -1.7966262696        3.0697729550
 H          2.7881174013       -1.8227743093        3.4293811027
 H          4.2065584714       -2.3723133511        3.6576007415
 O         -2.4536850376        4.6927672081        4.0484512968
 H         -3.1577072341        5.2196254721        3.6212965452
 H         -2.0644781026        4.1353114629        3.3346404241
 O         -7.4986652306        5.9993003322        0.8668212924
 H         -6.5731006875        5.9211430581        0.5505744345
 H         -7.4476633148        5.8956653677        1.8200675729
 O         -0.8748052899       -3.2793235357        2.8291503396
 H         -1.4890065914       -3.6778766494        2.1786105571
 H         -1.2692462347       -2.4264729495        3.0765570364
 O          0.3236121050       -0.1160478527       -6.7200167784
 H         -0.4813326633       -0.6968198173       -6.7236311015
 H          0.1360064781        0.5913209466       -7.3370730879
 O         -2.5226473634       -4.3788682965        1.0653575223
 H         -2.1859371000       -4.3701300599        0.1504602983
 H         -2.5308723849       -5.3114799947        1.3681319990
 O          3.7764266823        6.3073383365       -2.8744685016
 H          4.2419893053        5.5396354007       -3.2594559273
 H          4.2781215432        6.5339216671       -2.0763779537
 O         -0.9047702108        1.4624164265        4.4812023508
 H         -0.3611632783        2.2568444896        4.2691549679
 H         -1.7821870783        1.7953231547        4.7553907177
 O         -4.6615215049        2.6900372095       -1.2772187397
 H         -4.0220295618        2.3618733773       -1.9452976527
 H         -4.8723932871        1.9049688203       -0.7334652185
 O         -2.5073212554       -1.1866558836        2.0332712851
 H         -3.2170698273       -1.7866435613        2.3237846989
 H         -2.8333983449       -0.2871475265        2.2110656777
 O         -1.9173368170       -1.4656551580       -6.9067800280
 H         -2.5064914332       -0.7339224397       -6.6476478716
 H         -2.1395369310       -2.1943729856       -6.2946238235
 O         -6.6152957645        3.5874698606       -2.7826032910
 H         -5.8898177003        3.2973331905       -2.1748748180
 H         -6.1786889019        4.0347960710       -3.5130304900
 O         -3.2434300926       -5.9314549368        4.2871050634
 H         -2.9317896237       -6.4613984463        3.5404306576
 H         -2.4365270493       -5.5200379036        4.6543634842
 O         -2.1981170518       -3.8827715637       -1.6189076830
 H         -2.9455029330       -4.3714787136       -2.0135162677
 H         -2.5394397382       -3.0115695143       -1.3577618695
 O          3.0396294345        0.6073686071        4.6877438798
 H          2.8425111285        1.3253649776        5.3160006191
 H          3.4999601156       -0.0940653443        5.1765785322
 O          0.0515942362       -3.7662751164       -5.9407437963
 H         -0.0893822384       -3.3599932709       -6.7977018769
 H         -0.7888267961       -3.6602180713       -5.4582652767
 O          7.0343596055        0.3360327163       -2.2408964939
 H          7.6758062155        0.1876698967       -1.5244389546
 H          6.4240309966       -0.4273121462       -2.2592410958
 O          5.2817501701       -1.7230632130       -2.5397832813
 H          5.4314134772       -2.6412838031       -2.2452100967
 H          5.3235615320       -1.7430639552       -3.5163059552
 O         -0.0168311906       -3.0743268735       -2.9015059207
 H         -0.8637032061       -3.3426235595       -2.4730624860
 H          0.6108652838       -2.9659898891       -2.1803033353
 O         -4.5118079429       -2.5221372012        3.0408074414
 H         -4.9006465378       -3.3622230842        2.7363955167
 H         -5.1295729971       -1.7834558332        2.8709538913
 O         -9.6484340121       -1.7341132565       -1.6593548354
 H         -9.8920962381       -1.5225056008       -2.5623742075
 H        -10.4040492982       -1.5366487606       -1.0506815754
 O         -1.6521548711        6.0672026462        1.2529405727
 H         -2.0679838185        5.3639319118        0.7240067904
 H         -2.3637931153        6.5307549863        1.6978396260
 O          2.5742141650       -1.5114105981       -7.4824807305
 H          2.6416737180       -2.1840074223       -6.7948655575
 H          1.7476513403       -1.0358813594       -7.2900386522
 O          2.4825334466       -3.2227183127       -1.0742149051
 H          2.5040157237       -2.4144701771       -1.6364101466
 H          3.1617028861       -3.0851614015       -0.3935352501
 O         -3.8941247354       -1.7069240987       -1.2656077171
 H         -4.3103349584       -0.9341866332       -0.8350982887
 H         -4.4800921979       -2.4534398643       -1.0643256465
 O         -6.4369120221       -2.2034685018       -2.5068369054
 H         -7.2912815947       -2.0188428970       -2.9347045603
 H         -5.9682390462       -1.3554187394       -2.5142603038
 O          5.7437386539        3.6013752976        1.8043211585
 H          5.4367070845        2.7195223837        1.5860377272
 H          6.3077977102        3.8975495618        1.0639207326
 O          1.5428188160        0.9994808916       -2.0438351224
 H          2.1250617192        0.2507782365       -2.2561427296
 H          1.7042458064        1.1573597257       -1.0872544436
 O          2.5019566937       -3.0407924488       -5.0317836219
 H          2.8031204244       -3.7547776426       -4.4239994904
 H          1.6011462376       -3.3002545429       -5.3094108584
 O         -3.1599958136        0.6000533764       -5.6278968837
 H         -2.4095797144        1.1902870446       -5.4488021225
 H         -3.1848334733       -0.0026466545       -4.8552600862
 O         10.0953522382        3.6761996098       -1.7283395065
 H          9.2113961433        3.5067372223       -2.0918645259
 H         10.6181726963        2.8749820610       -1.9020559598
 O          4.2630518881       -3.8551308320        4.8197745573
 H          4.8334071718       -4.4614490379        4.3296011282
 H          3.3813942535       -4.2552932140        4.8103738634
 O          2.7421163518       -4.2365523121        1.6972489000
 H          2.2617151367       -3.3799934194        1.6458886747
 H          2.6636939435       -4.5203717944        2.6167804606
 O          6.4434936591       -2.6194221912        2.8552527429
 H          6.2447482691       -3.5570250197        2.9936687103
 H          7.3355504801       -2.5859633792        2.4847027633
 O         -3.3781144584        1.2985898714        2.6467174945
 H         -4.0738242780        1.8735205640        2.2702049419
 H         -2.5780587375        1.8494612819        2.6789082575
 O         -1.0086908129       -4.6138177175        5.1374938067
 H         -0.1332210124       -4.9961041877        5.2545582555
 H         -0.9545888134       -4.0943292882        4.2986649237
 O          7.9649189542       -3.0361904537       -2.3144113493
 H          7.3409384607       -3.7728377016       -2.2540567807
 H          7.9253452688       -2.7451305398       -3.2572432930
 O          5.6227298679       -4.3955791814       -2.0467440178
 H          5.5084674366       -4.7691184107       -1.1509684154
 H          4.8929458590       -4.7424291255       -2.5782944502
 O         -4.2994097831       -5.2847502211       -2.5883448651
 H         -5.1588659442       -5.3146434774       -2.1305685552
 H         -4.4932735824       -4.8376111420       -3.4229944273
 O         -2.0087106920       -2.5704745077        6.6954810058
 H         -1.4480662397       -3.3318960717        6.4827263729
 H         -2.9006630747       -2.8541458339        6.4043906546
 O         -5.7571421911        1.9612046934        4.2403764243
 H         -6.5107157957        1.5169000265        4.6960857485
 H         -4.9913534726        2.0056843516        4.8300862824
 O          6.8410730393       -0.7894952180        4.7882966305
 H          7.7840914696       -0.6297291232        4.6563795620
 H          6.5931475286       -1.4362582579        4.0919789430
 O         -0.1337243847       -0.4478671735       -3.7758300151
 H          0.5543036244       -0.0095749771       -3.2528332608
 H          0.0431858339       -1.4017665333       -3.7124408479
 O          8.2619900591        0.3931995198       -4.5409877840
 H          7.7226400287        1.0185738335       -5.0394317865
 H          7.8345012890        0.3730672317       -3.6450038244
 O          1.7776874713        5.1337322063       -1.5728186471
 H          2.2819635326        4.6863979704       -0.8604097932
 H          2.4347828546        5.7029630399       -2.0256154101
 O          1.1789611574        5.6637966658       -4.5598201102
 H          1.9539761865        6.0235705930       -4.1190915732
 H          0.4350027235        5.7243867397       -3.9345380512
 O          9.0769416468        0.0634635308       -0.5406041699
 H          9.5031248112        0.3830270302        0.2699785915
 H          9.4984079100       -0.7888003795       -0.7813679231
 O         -5.8356995603       -0.1669308109        2.4826776446
 H         -6.8041808746       -0.2737463742        2.4116055832
 H         -5.7036780723        0.6010254676        3.0681827406
 O         -6.5988080105        4.3524630737        3.4070569419
 H         -7.5146947472        4.1377486036        3.1443660929
 H         -6.3163962621        3.5710705897        3.9239187662
 O          1.7183894979        5.9403859783        1.5149337831
 H          1.6964635057        6.7681264578        1.0345362323
 H          2.6206326719        5.8424553370        1.8925221662
 O         -5.1334953594        3.0122552368        1.5006210493
 H         -5.5043923169        3.5247016593        2.2409394094
 H         -5.9092018783        2.5656298971        1.1097484826
 O         -0.1419546596        6.9018037004       -0.8728331340
 H         -0.6356467189        6.6746668232       -0.0645574212
 H          0.6060216787        6.2771632295       -0.9293431330
 O         -8.4315228138        4.2098711583       -0.8994459443
 H         -8.1657531075        4.9599044561       -0.3317512783
 H         -7.8270551386        4.2035810538       -1.6625656590
 O         -0.9361149501        1.9612071997       -4.7782721946
 H         -0.5868354968        1.0831190318       -4.5476772134
 H         -0.1877763007        2.4567693281       -5.1704272559
 O         -8.9546396493        3.5677292800        2.2487559906
 H         -9.1767367498        4.2842080965        1.6492292649
 H         -8.4146375991        2.9367383758        1.7238661489
 O         -7.8395725258        0.5353441941        5.0078265671
 H         -8.2318189189        0.3013702389        4.1494440540
 H         -7.3982485036       -0.2716772252        5.3129797963
 O          2.4187492687       -6.4249073993        0.2025542029
 H          2.4002848528       -5.5438646907        0.6340592144
 H          1.6718220637       -6.4734288769       -0.4092071364
 O         -2.5355326812        3.8807562976       -0.1500413136
 H         -1.8489297365        3.6216914540       -0.7812150201
 H         -3.3865413315        3.5962769636       -0.5361533847
 O         -5.1320100386        0.3242314460       -0.0358878253
 H         -5.9983441313        0.1382002574       -0.4279899920
 H         -5.2640729895        0.1750779553        0.9300614749
 O          3.4616045836        3.9589467565        0.0730460897
 H          3.3341891752        3.6532622013        0.9964779294
 H          3.9935880253        3.2796341120       -0.3960456604
 O         10.3484962361       -2.0130043517       -1.6341520373
 H         10.5831894755       -1.5750864131       -2.4714659787
 H          9.5870468145       -2.5836272749       -1.8420453032
 O          7.0191241477       -1.8085351970       -0.0596775085
 H          7.3360243136       -2.2086459758       -0.8899873094
 H          7.7413399169       -1.9140871427        0.5914464911
 O          0.1810412563        0.9068961994        6.8981080935
 H         -0.6667079402        0.6885028720        7.3184330469
 H         -0.0743363516        1.1009449620        5.9733418480
 O          4.3682734282        0.6891684449        2.2922065883
 H          4.8869029491        1.0458777521        3.0500668362
 H          4.0645223987       -0.1907721619        2.5899208159
 O         -2.7719642832       -6.9409748190       -0.8646863576
 H         -3.2026523316       -6.5187282785       -1.6193560209
 H         -1.8112048152       -6.8258188845       -1.0187576777
 O          3.8186725210       -0.3243034483       -0.5843382933
 H          3.9998377631       -1.1297651776       -0.0702614419
 H          4.4268423157       -0.3448068673       -1.3282120751
 O         -1.2100872009       -1.2362450969        4.5408945006
 H         -1.0999894311       -0.2771865683        4.6111978278
 H         -1.3988568552       -1.6019035646        5.4320508742
 O          1.6794443472       -4.7826666752        4.2059022672
 H          1.4491006070       -3.8228986504        4.2495420305
 H          1.0962538306       -5.1851598938        3.5381000836
 O         -2.4489616937        0.1668010553        7.2077657517
 H         -2.3111098722       -0.7704278343        7.3912560652
 H         -3.0211519762        0.1841267853        6.4209329108
 O          4.2328340956        5.7403012993        2.4917675273
 H          4.7768465049        4.9668686870        2.2254184377
 H          4.1687379841        5.6523854789        3.4464749236
 O         -7.4694400717        2.1564820874        0.5167130483
 H         -7.7956409700        2.8202971795       -0.1272857144
 H         -7.7303049415        1.2739898635        0.1947903607
 O         -5.2153486974       -6.4467752294        0.4517349583
 H         -5.8825214584       -6.5389203093       -0.2409417843
 H         -4.3705593340       -6.7474803068        0.0826137779
 O          7.0911219244        4.5975382386       -0.2806716922
 H          7.1826140982        4.0684320062       -1.0881496388
 H          6.4172571133        5.2777237564       -0.4556951572
 O          5.0179642869        2.3280238911       -1.2755003350
 H          4.6489011658        1.6990720198       -1.9250860688
 H          5.5661693858        1.7850546944       -0.6772191724
 O         -9.6720406425       -2.8580745742        1.9408088259
 H         -9.1326163024       -3.2013904569        2.6655219245
 H         -9.3882073756       -3.3451456725        1.1476725961
 O          2.2160425140        0.9856959910       -5.0606308532
 H          1.4999404924        0.4777373046       -5.4757757871
 H          1.9818156748        1.9240472645       -5.1469132652
 O         -2.7792634225       -1.1128766484       -3.5709390977
 H         -1.8917899233       -0.7607245783       -3.4015775362
 H         -3.2065008931       -1.3092684425       -2.7072920933
 O         11.4167026327       -1.6645127368        0.9066314858
 H         11.4822358977       -0.7060735673        0.9988176709
 H         11.3161163559       -1.8535483878       -0.0376273184
 O         -7.3777155793       -3.2194885912        3.4860267317
 H         -7.0053161639       -2.6176137867        4.1609881027
 H         -6.8147355906       -4.0085724161        3.4670239069
 O         -2.1770559374       -6.8884840652        1.9037484977
 H         -1.2206318288       -6.6921256427        2.0072744104
 H         -2.2965364062       -7.3177295136        1.0496641670
 O         -5.3002157751        0.3183940887       -3.0735760239
 H         -4.3649062491        0.5061298750       -2.9081390820
 H         -5.5867791257        1.0061759067       -3.7055335802
 O         10.7089868246       -0.6123101892       -3.9889115814
 H          9.8648785275       -0.1739441564       -4.2170015836
 H         10.9233186667       -1.1774105611       -4.7314246450
 O          7.5169232989        3.0186964304       -2.5575985303
 H          7.2324659098        2.1114073512       -2.3461276640
 H          7.2778034643        3.1691200186       -3.4738493969
 O          9.2736150958       -0.0753617971        3.5654484941
 H          8.8204583805        0.6532778312        3.0651090928
 H         10.2045105524        0.1481806220        3.5751479714
 O          7.7707751929       -2.2526069605       -4.8469472054
 H          6.8408841423       -2.2973251002       -5.1128639468
 H          7.9916306943       -1.3019058373       -4.8612132945
 O         -4.4010875276        6.0209135786        2.7511406514
 H         -5.1898174273        5.6439202230        3.1626784302
 H         -4.5339064936        5.9011537892        1.7910784582
 O          5.0057060733       -5.2781898969        0.4466203463
 H          4.2364151320       -5.8566623826        0.3307648555
 H          4.6416893436       -4.3818417836        0.6299850561
 O         -1.4905102540        3.1104923287        2.1535019029
 H         -0.5659376779        3.2385075739        1.8649917123
 H         -1.9993330535        3.4157612866        1.3762413985
 O         -6.8551481103       -5.6077960428       -1.5910660412
 H         -7.3574786668       -5.9233639459       -2.3416067990
 H         -7.4264917329       -4.9269672450       -1.1532493554
 O         -5.4019671841       -5.0477698586        2.8541701771
 H         -4.6971675108       -5.4011826625        3.4273898608
 H         -5.4193479309       -5.6243239780        2.0764845070
 O          2.1283085179        1.3551995113        0.5183376018
 H          1.7580521754        0.9574522729        1.3296294531
 H          2.9331333086        0.8444379360        0.3203633903
 O         -7.7174874586       -0.2993545264       -0.5386507607
 H         -8.4455338915       -0.7421304111       -1.0240047574
 H         -7.4623357209       -0.9590405861        0.1362907695
 O          0.5650809680       -5.5413782616       -3.7402100457
 H          0.3425933917       -5.6512455641       -4.6657602487
 H          0.3250541567       -4.6081434403       -3.5253487430
 O          3.1116452225       -4.8224856188       -3.1238874304
 H          2.8825871978       -4.3111194993       -2.3141410345
 H          2.3402684971       -5.3856740833       -3.2975420526
 O          1.2324153297       -2.0776938855        1.5905860471
 H          0.4835232669       -2.5272159739        2.0223962192
 H          1.3104183769       -1.2198920393        2.0365017764
 O          2.2600415032        3.1992305427       -3.3710690837
 H          2.1001698724        2.3603753521       -2.8980580214
 H          1.9419328093        3.9082868354       -2.7775847294
 O          1.0537473541        3.3738687329       -5.8866630456
 H          0.9294958640        3.7603060728       -6.7526385644
 H          1.2042852960        4.1407313522       -5.2790068788
 O         -8.5334118023       -0.3401946991        2.4414679683
 H         -8.9343187068       -1.2163602498        2.3182299884
 H         -9.0958859204        0.2749116941        1.9350333974
 O         -3.2411993356        2.5593461508        5.3869898963
 H         -3.0943804444        2.6356155931        6.3300731608
 H         -3.0233736306        3.4333084260        4.9748565019
 O          4.3197493300        0.3544662660       -6.5695829754
 H          3.5673042990        0.6529346864       -6.0104839512
 H          3.8960216867       -0.2350063952       -7.2181649083
 O         -4.2421868993       -3.5417826064        5.5528464733
 H         -4.0528801298       -4.4749288070        5.4149080833
 H         -4.2475278259       -3.1417260031        4.6586104068
 O          8.0264308399        1.7570999929        2.1910538363
 H          8.5372963589        2.4617501419        1.7525425952
 H          7.4360605969        1.3771708079        1.4989191380
 O         -4.8562002285        4.6161623068       -4.7880007614
 H         -3.8773403784        4.5022611760       -4.9421324713
 H         -5.1485662509        5.2833075249       -5.4083830875
 O          2.2439861871        2.6762182327        6.2330890639
 H          1.6361667698        2.2081286409        6.8190633727
 H          1.6783957477        3.0361078783        5.5114214647
 O          0.0459897267        5.8683096898        3.8484070887
 H          0.2106406155        6.0394860252        2.9115513643
 H         -0.9045038928        5.6929813828        3.9507319650
 O          6.2672309255        0.7287813831        0.5103192948
 H          6.5563822889       -0.1657286319        0.2521481777
 H          5.4988930738        0.6012295050        1.1189478676
 O          2.9654436168        3.0204641006        2.5431879946
 H          3.5075172515        3.4141642693        3.2637084542
 H          3.2743166692        2.0984481428        2.4667669724
 O          0.8276907261        3.3773647490        4.0811113980
 H          1.5325645534        3.2361168536        3.4133278589
 H          0.5876839804        4.3351276824        4.0464189967
 O          4.3494705581        0.7304898117       -3.3219988871
 H          3.5436947293        0.8514545634       -3.8443572743
 H          5.0913740524        1.0010677115       -3.8848216097
 O          5.8389721257       -5.3254514972        2.9972701518
 H          5.5221267454       -5.3904912412        2.0649860919
 H          6.5034936879       -6.0033679563        3.1109842478
 O         -3.8249924397       -0.2803633248        4.8074552136
 H         -3.7767666811        0.4131369617        4.1206784721
 H         -3.1366912052       -0.9138149802        4.5559668506
 O          8.9290607386       -2.0846858600        1.8164860410
 H          9.0025715655       -1.3724059236        2.4863412232
 H          9.8404917345       -2.1685700449        1.4722538419
 O        -10.2853213711        1.2067662844        1.0902297811
 H        -10.3581324707        1.9858538667        1.6501774859
 H        -10.2526240735        1.5306217373        0.1556876012
 O         -0.1269188504       -6.4009976281       -1.2178921929
 H         -0.1303562044       -5.5041765056       -0.8158817570
 H          0.0528101575       -6.2685438433       -2.1601824611
 O          0.6647768709        3.6139443027        0.7000240930
 H          1.3794416212        2.9584667493        0.7590379291
 H          1.0320668462        4.4700117582        0.9913623257
 O        -11.3361118754       -1.2456753724        0.3040290981
 H        -10.9916683772       -1.8434877939        0.9808064237
 H        -11.1314093179       -0.3499006822        0.6156768552
 O          4.3355854516        3.8205654430        4.6790196312
 H          5.0339659518        3.1523772281        4.5791737896
 H          3.7763715052        3.5252877943        5.4082941685
 O         -6.8531301299       -2.2919485032        1.0151485232
 H         -6.0346876691       -2.7578030258        0.7360470282
 H         -7.0684883236       -2.5781099265        1.9261414453
 O         11.0159888649        1.2433805899        0.9900795365
 H         10.6111671796        2.0956921437        1.2051549181
 H         11.4522545312        1.3853031905        0.1392360680
 O         -5.1632411318       -3.5066842709       -4.4775671393
 H         -5.5961925495       -3.1123507431       -3.6817167157
 H         -5.4117921242       -2.8994176815       -5.1839197995
 O          6.0540168185        2.0102276944       -5.1040654240
 H          5.5488308026        1.6492158540       -5.8430604922
 H          5.5619157933        2.7835508522       -4.7541250874
 O         -8.3758527873       -1.1487664159       -4.1502466921
 H         -7.6795038664       -1.2009769573       -4.8232495933
 H         -8.3635579678       -0.2274476366       -3.8420246298
 O         -2.2782535419        4.3981544998       -5.0825741163
 H         -1.8249646043        4.9433376963       -4.4179293098
 H         -1.9077640783        3.5118958480       -4.9837038217
 O          9.4548596136        3.6278124127        0.8500830002
 H          8.7102440479        4.2414567108        0.8167571189
 H          9.7867131622        3.6561503344       -0.0808645034
 O          5.0685257583       -1.8329408612       -5.2001612137
 H          4.2640969865       -2.3559548723       -5.3029489832
 H          4.9103001493       -0.9914384171       -5.6831585481
 O          4.8603134171        6.1742628802       -0.3208440707
 H          4.3297552133        5.3568047432       -0.1460332094
 H          4.8885773600        6.6219209660        0.5280642433
 O        -10.1532885615        2.1433069962       -1.3762373290
 H         -9.8063744282        3.0397097910       -1.2630257060
 H         -9.5324668418        1.7138526604       -1.9944803000
 O         -5.4889508304        1.9073250280       -5.2290912017
 H         -5.3463709163        2.8573962294       -5.1303566328
 H         -4.6287273604        1.5273545442       -5.4957311385
 O          4.7826495539        3.8517622880       -3.5957093500
 H          5.1053171833        3.5229627090       -2.7399563626
 H          3.8302101552        3.5738466141       -3.6131032651
 O         -8.4515889368       -3.8303017796       -0.4179956438
 H         -8.8971601186       -3.2330884860       -1.0430121244
 H         -7.7884689979       -3.2555151820        0.0323267202
 O         11.1596029683        1.1872089896       -1.8760498312
 H         10.3043605652        0.8402137737       -1.5490967211
 H         11.3422187420        0.6982300226       -2.6847132172
 O         -8.0419766877        1.2743307445       -2.8626881817
 H         -7.5612410648        2.1124564171       -2.9976425161
 H         -7.5657165849        0.7986111190       -2.1690115610
 O         -1.0599975263        5.4901374345       -2.8881700949
 H         -0.7545983575        4.6371218642       -2.5130695067
 H         -0.8021544229        6.1614514565       -2.2052856438
 O         -6.1504112122       -1.5916122416        5.3261186625
 H         -5.7934160134       -2.2786542732        5.8988595514
 H         -5.3647829294       -1.0608758212        5.0674428502
 O          6.0284211677        1.6951797314        4.1062371133
 H          6.7454075610        1.9662417435        3.5074019624
 H          6.3041993679        0.8425383645        4.4965614822
 O         -0.9319147037       -1.6654190967        0.0081171272
 H         -0.0659644998       -1.4311069127        0.3787771732
 H         -1.5698643995       -1.5878935337        0.7578534759
 O         -1.9256315753        0.8895624477       -0.2918718074
 H         -2.5250458864        1.0191439169        0.4471334666
 H         -1.6009424232       -0.0238039074       -0.2625506666
 O          7.9556060993       -5.1424561177        0.1992565243
 H          8.1979769188       -4.5883552477       -0.5442927412
 H          6.9965828024       -5.2130437807        0.2125178723
