  94
       -152.89685127
 H          0.3380767344        0.3029206221       -1.7946821213
 C          0.7982594251       -0.0730332552       -0.8754967332
 H          1.0771512570       -1.1215781882       -1.0458701746
 C         -0.1528676893        0.0263055326        0.2717271366
 H         -1.0230972801       -0.6008774472        0.2532372602
 H         -1.3154860733        1.6726178657       -0.2455079109
 C         -1.9897115124        2.5039804347       -0.4922054332
 H         -1.5026637385        3.1441847293       -1.2198452897
 H         -2.1801195185        3.0840020192        0.4069045688
 C         -3.2871185614        1.9721666741       -1.0815504225
 H         -3.0914579331        1.4568693781       -2.0248861256
 H         -3.9849573939        2.7929627322       -1.2705634561
 O         -3.9702910268        1.0903144394       -0.1892992674
 H         -3.5212811377        0.2093468872       -0.1846113671
 O          2.0189794787        0.5965062809       -0.6165774237
 H          1.8567592063        1.5618740407       -0.5955368294
 N          0.3580176091        0.3390782159        1.5301046362
 H          1.3401664566        0.5857288113        1.4637369388
 H          0.2046600055       -0.3764834643        2.2431274294
 O          0.5156921387       -2.2310853370       -3.8499378194
 H          1.2175179979       -2.7005492147       -3.3825552813
 H          0.9008428976       -1.3713178766       -4.1023009324
 O         -1.5550941273       -1.6608222654       -2.2772511820
 H         -1.6462805373       -0.7489245604       -2.6014002029
 H         -0.8858257909       -2.0395574576       -2.8929280148
 O          4.9607196036       -0.1125184954       -0.0904097512
 H          4.7970570413        0.8406449209       -0.0475277520
 H          4.6776159586       -0.3798269707       -0.9833352633
 O          1.6998595934        0.2281834533       -4.2564583969
 H          1.4409111708        1.0677894722       -3.8528333659
 H          2.5208229863       -0.0403820354       -3.8024858422
 O         -6.4243713615        0.2461690997       -1.0986344884
 H         -5.5824613606        0.6506781201       -0.8123389509
 H         -7.0915919641        0.5101055592       -0.4631703763
 O          0.6482114149        0.8545572476        4.5932074190
 H         -0.0378418611        1.4361215638        4.2235665407
 H          1.4611828733        1.1135911176        4.1447508445
 O          4.0820540761       -3.1342356610        0.2713942607
 H          3.3863970514       -3.0507768754        0.9392229379
 H          4.6214676157       -2.3394267847        0.3255811700
 O         -0.0000989457       -3.2101581079       -0.3931231813
 H         -0.6479355102       -3.6361134058        0.2012643408
 H         -0.5316722698       -2.6959458611       -1.0181129761
 O         -3.6887986742        1.6298277871        2.4584827284
 H         -4.5100872609        1.9657697884        2.8167431289
 H         -3.8069341372        1.5368385137        1.4880309359
 O          3.4955664523       -0.5341440550        2.1463240674
 H          4.0189478962       -0.4473923803        1.3232045291
 H          2.8048990639       -1.2027231332        1.9747247397
 O          1.1116826917        3.7052558930        1.9183801477
 H          0.2483845879        3.4084499006        2.2513893020
 H          1.7570818387        3.1378865002        2.3616146610
 O         -2.0242124837       -3.7282768676        1.3094605566
 H         -2.5981199290       -3.0681324442        0.8924488574
 H         -1.8740747076       -3.4266483083        2.2087232409
 O          2.4029957585       -3.1097657002       -1.8537458247
 H          3.1132217714       -3.2835166211       -1.2043239115
 H          1.5883987614       -3.3400665766       -1.3820000469
 O         -3.1664848138       -1.5113699439       -0.1147499155
 H         -2.6045605169       -1.6468397762       -0.9037366011
 H         -4.0493604365       -1.8741058825       -0.3588307369
 O         -1.3579202969        0.7874071619       -3.5774278644
 H         -0.7581229099        1.4992367976       -3.3068159256
 H         -0.9396531943        0.3742881577       -4.3385543406
 O         -0.1920065437       -1.5886628588        3.5911063475
 H         -1.1394667763       -1.4318527232        3.4278580878
 H          0.1005011013       -0.8865875035        4.1992013180
 O          3.5639404182       -0.6444620358       -2.4347967830
 H          3.0015027285       -0.1495914435       -1.8049449009
 H          3.2612656382       -1.5670967994       -2.3671945721
 O          3.0072154329        1.8345780369        2.9635760012
 H          3.1642221192        0.8778401947        2.6800260903
 H          3.5819442672        1.9791517960        3.7163578765
 O         -0.9992497519        2.2600097584        2.8722111985
 H         -1.9591662426        2.1566857220        2.8321046240
 H         -0.6247686131        1.5616799239        2.2808032954
 O         -2.7086786358       -0.9885849606        2.6737058940
 H         -3.0214087372       -0.0851964224        2.8217260691
 H         -2.8527125514       -1.1590119079        1.7330627241
 O         -5.5539463693       -2.3076323031       -0.9653075657
 H         -5.5556725058       -2.7273060613       -1.8267642668
 H         -5.9888159002       -1.4363787655       -1.0741835118
 O          1.6793855567       -2.4932015683        1.6891650617
 H          1.1136079346       -2.7025771048        0.9238449222
 H          1.0829873725       -2.4166893029        2.4491182143
 O          0.7110815883        2.6409257066       -3.0168953629
 H          1.0718083255        2.8980547051       -2.1463252502
 H          0.8027283305        3.4086846805       -3.5825535911
 O          1.8232704466        3.3054601851       -0.6079841259
 H          2.7775372667        3.2945318269       -0.4427815525
 H          1.4244409034        3.5369459956        0.2644275119
 O          4.2524120166        2.6125042585        0.5938703928
 H          3.7844027369        2.3726260164        1.4186944140
 H          5.0231761264        3.1200871379        0.8496181078
