  94
       -152.89685127
 H          0.3380767344        0.3029206221       -1.7946821213
 C          0.7982594251       -0.0730332552       -0.8754967332
 H          1.0771512570       -1.1215781882       -1.0458701746
 C         -0.1528676893        0.0263055326        0.2717271366
 H         -1.0230972801       -0.6008774472        0.2532372602
 H         -1.3154860733        1.6726178657       -0.2455079109
 C         -1.9897115124        2.5039804347       -0.4922054332
 H         -1.5026637385        3.1441847293       -1.2198452897
 H         -2.1801195185        3.0840020192        0.4069045688
 C         -3.2871185614        1.9721666741       -1.0815504225
 H         -3.0914579331        1.4568693781       -2.0248861256
 H         -3.9849573939        2.7929627322       -1.2705634561
 O         -3.9702910268        1.0903144394       -0.1892992674
 H         -3.5212811377        0.2093468872       -0.1846113671
 O          2.0189794787        0.5965062809       -0.6165774237
 H          1.8567592063        1.5618740407       -0.5955368294
 N          0.3580176091        0.3390782159        1.5301046362
 H          1.3401664566        0.5857288113        1.4637369388
 H          0.2046600055       -0.3764834643        2.2431274294
 O          0.5156921387       -2.2310853370       -3.8499378194
 H          1.2175179979       -2.7005492147       -3.3825552813
 H          0.9008428976       -1.3713178766       -4.1023009324
 O         -1.5550941273       -1.6608222654       -2.2772511820
 H         -1.6462805373       -0.7489245604       -2.6014002029
 H         -0.8858257909       -2.0395574576       -2.8929280148
 O          4.9607196036       -0.1125184954       -0.0904097512
 H          4.7970570413        0.8406449209       -0.0475277520
 H          4.6776159586       -0.3798269707       -0.9833352633
 O          1.6998595934        0.2281834533       -4.2564583969
 H          1.4409111708        1.0677894722       -3.8528333659
 H          2.5208229863       -0.0403820354       -3.8024858422
 O         -6.4243713615        0.2461690997       -1.0986344884
 H         -5.5824613606        0.6506781201       -0.8123389509
 H         -7.0915919641        0.5101055592       -0.4631703763
 O          0.6482114149        0.8545572476        4.5932074190
 H         -0.0378418611        1.4361215638        4.2235665407
 H          1.4611828733        1.1135911176        4.1447508445
 O          4.0820540761       -3.1342356610        0.2713942607
 H          3.3863970514       -3.0507768754        0.9392229379
 H          4.6214676157       -2.3394267847        0.3255811700
 O         -0.0000989457       -3.2101581079       -0.3931231813
 H         -0.6479355102       -3.6361134058        0.2012643408
 H         -0.5316722698       -2.6959458611       -1.0181129761
 O         -3.6887986742        1.6298277871        2.4584827284
 H         -4.5100872609        1.9657697884        2.8167431289
 H         -3.8069341372        1.5368385137        1.4880309359
 O          3.4955664523       -0.5341440550        2.1463240674
 H          4.0189478962       -0.4473923803        1.3232045291
 H          2.8048990639       -1.2027231332        1.9747247397
 O          1.1116826917        3.7052558930        1.9183801477
 H          0.2483845879        3.4084499006        2.2513893020
 H          1.7570818387        3.1378865002        2.3616146610
 O         -2.0242124837       -3.7282768676        1.3094605566
 H         -2.5981199290       -3.0681324442        0.8924488574
 H         -1.8740747076       -3.4266483083        2.2087232409
 O          2.4029957585       -3.1097657002       -1.8537458247
 H          3.1132217714       -3.2835166211       -1.2043239115
 H          1.5883987614       -3.3400665766       -1.3820000469
 O         -3.1664848138       -1.5113699439       -0.1147499155
 H         -2.6045605169       -1.6468397762       -0.9037366011
 H         -4.0493604365       -1.8741058825       -0.3588307369
 O         -1.3579202969        0.7874071619       -3.5774278644
 H         -0.7581229099        1.4992367976       -3.3068159256
 H         -0.9396531943        0.3742881577       -4.3385543406
 O         -0.1920065437       -1.5886628588        3.5911063475
 H         -1.1394667763       -1.4318527232        3.4278580878
 H          0.1005011013       -0.8865875035        4.1992013180
 O          3.5639404182       -0.6444620358       -2.4347967830
 H          3.0015027285       -0.1495914435       -1.8049449009
 H          3.2612656382       -1.5670967994       -2.3671945721
 O          3.0072154329        1.8345780369        2.9635760012
 H          3.1642221192        0.8778401947        2.6800260903
 H          3.5819442672        1.9791517960        3.7163578765
 O         -0.9992497519        2.2600097584        2.8722111985
 H         -1.9591662426        2.1566857220        2.8321046240
 H         -0.6247686131        1.5616799239        2.2808032954
 O         -2.7086786358       -0.9885849606        2.6737058940
 H         -3.0214087372       -0.0851964224        2.8217260691
 H         -2.8527125514       -1.1590119079        1.7330627241
 O         -5.5539463693       -2.3076323031       -0.9653075657
 H         -5.5556725058       -2.7273060613       -1.8267642668
 H         -5.9888159002       -1.4363787655       -1.0741835118
 O          1.6793855567       -2.4932015683        1.6891650617
 H          1.1136079346       -2.7025771048        0.9238449222
 H          1.0829873725       -2.4166893029        2.4491182143
 O          0.7110815883        2.6409257066       -3.0168953629
 H          1.0718083255        2.8980547051       -2.1463252502
 H          0.8027283305        3.4086846805       -3.5825535911
 O          1.8232704466        3.3054601851       -0.6079841259
 H          2.7775372667        3.2945318269       -0.4427815525
 H          1.4244409034        3.5369459956        0.2644275119
 O          4.2524120166        2.6125042585        0.5938703928
 H          3.7844027369        2.3726260164        1.4186944140
 H          5.0231761264        3.1200871379        0.8496181078
  94
       -152.89524660
 H          3.5992897557        1.0803995509       -4.0820291809
 C          3.4149100546        0.6398487571       -3.0952025271
 H          4.3753159378        0.4416217063       -2.6082646804
 C          2.6467845453       -0.6907257612       -3.2593289789
 H          3.1281723214       -1.2288661096       -4.0945778894
 H          1.6084538497       -0.5045725965       -3.5637888750
 C          0.7972478587       -0.6446443817       -0.1386014051
 H          1.1707031885       -0.0297212204        0.6731741348
 H          0.3544606835       -1.5471645389        0.2713045789
 C         -0.1901540929        0.1140326152       -1.0041126719
 H         -0.5097562964       -0.5122948406       -1.8396808042
 H          0.2769906736        1.0141765785       -1.4079198539
 O         -1.3215359553        0.4888702140       -0.2032399529
 H         -2.0430895652        0.8579473128       -0.7644180281
 O          2.7308492297        1.5484377232       -2.2748291505
 H          1.9411937534        1.9044750531       -2.7549622970
 N          2.6511404037       -1.5470119997       -2.1501398612
 H          1.6382133099       -0.9437262405       -0.7872314406
 H          3.5258841474       -1.4762634146       -1.6249357773
 O         -2.8058337931       -0.7170936958       -3.3931150218
 H         -2.6826141532       -1.3575464462       -2.6718523848
 H         -3.1534221603        0.0799760635       -2.9679419954
 O          1.3316670518       -3.8574394158       -1.5183858495
 H          2.0485587874       -4.1398755972       -0.9142229502
 H          1.6491730482       -2.9978200769       -1.8650835841
 O          3.1439108998        0.5276879260        2.5143800276
 H          4.0660604080        0.6655489252        2.7426945319
 H          2.9916961887        1.0823053207        1.7168008596
 O         -2.8100256656        4.1781054268        0.4008650693
 H         -3.6109792199        3.6301422482        0.4258242623
 H         -2.3807591569        4.0584628033        1.2729090649
 O         -3.6386635633        1.0815305590       -1.4464058439
 H         -4.0325799088        1.8554678223       -1.0185395178
 H         -4.2018074760        0.3370712979       -1.1610163764
 O         -2.3584621594       -0.4914433826        2.1207525292
 H         -2.0505373147        0.0626168965        2.8679529920
 H         -1.9137995639       -0.1252538081        1.3377372577
 O         -0.4927735184        0.1152721607       -4.4407313521
 H         -1.3464431779       -0.2237751040       -4.0850567558
 H         -0.5613425357        0.0568836944       -5.3939384511
 O          0.8624466482       -2.6223456740        3.7483543173
 H          0.0186931768       -2.7845008724        3.2444072314
 H          0.8894994569       -3.2780795871        4.4448319844
 O         -1.4221691566        3.5916305673        2.6666304817
 H         -0.6228681301        3.4349478557        2.1371202960
 H         -1.5363499253        2.7823122030        3.1870427774
 O          2.9373810580       -2.1481544973        1.9975252509
 H          2.9948337191       -1.1912926341        2.1737787674
 H          2.2324138383       -2.4568953465        2.5887837167
 O          2.8983773486        2.1147115926        0.3699805190
 H          2.8740101947        1.8274085621       -0.5615754380
 H          2.0037205217        2.4684195284        0.5476388427
 O         -0.8493680211       -3.9226882463       -0.1579918194
 H          0.0096776327       -3.8433554795       -0.6857212489
 H         -1.0901808308       -4.8479288005       -0.2109749237
 O          3.4309830855       -4.1604498240        0.1612231941
 H          4.1610802947       -3.7442748951       -0.3043654248
 H          3.2008360650       -3.5425971758        0.8748933542
 O         -4.9473141386        0.2295444900        1.6805181887
 H         -4.0444737891       -0.0426994800        1.9405747763
 H         -5.1936888078       -0.3686407958        0.9623035541
 O         -5.0153157116        2.5431711070        0.4262397626
 H         -5.8374419901        2.9806732993        0.6455564855
 H         -4.9809175568        1.7180396564        0.9797379520
 O         -1.3471109951       -3.0185514862        2.4151275600
 H         -1.1537790814       -3.3387150410        1.5177915983
 H         -1.7974312192       -2.1573868174        2.3207595599
 O          4.7891145978       -1.3112571316       -0.1133574333
 H          4.2363547660       -1.6470419000        0.6025640713
 H          5.1226844190       -0.4573656015        0.2024412445
 O         -1.3593044945        1.1219440534        4.0103279045
 H         -0.4254397958        0.7875183343        4.0905657711
 H         -1.7174309523        1.1191638828        4.8983075006
 O          0.2891004899        2.7017629285        0.7144893698
 H         -0.2091648579        1.8727807172        0.6716484572
 H         -0.0246609650        3.2070639662       -0.0631905033
 O         -5.0475083828       -1.2017338858       -0.7246346177
 H         -4.1927983038       -1.6853974328       -0.7446947676
 H         -5.6147176334       -1.6147322315       -1.3760844227
 O         -2.5400705331       -2.0360747867       -0.9562611363
 H         -1.9815295074       -2.8092943783       -0.7239662841
 H         -2.1308662656       -1.2844625124       -0.5039668788
 O          1.0268403741        0.0758855112        4.2677545822
 H          0.9627078176       -0.8879157561        4.1384822953
 H          1.7604213340        0.3645762360        3.7030581761
 O         -0.9530250790        3.8237903745       -1.4018359149
 H         -0.7188623992        4.7163635482       -1.6595400016
 H         -1.7404545792        3.9244587000       -0.7975671055
 O          0.5081320986        2.4674730470       -3.4565946853
 H         -0.1118495148        2.8578805238       -2.8250489287
 H          0.0835900449        1.6690683782       -3.8220801070
 O          5.4864749486        1.2675899434        0.8325351978
 H          6.1754874376        1.7379749751        0.3630341540
 H          4.6525951622        1.7264948386        0.6365507493
  94
       -152.89324594
 H          3.5127073770       -1.3392161590       -2.5140093759
 C          3.1641314394       -0.4441479019       -1.9959731984
 H          2.6069511499       -0.7387880570       -1.0979999801
 C          2.1909618179        0.3138018052       -2.9320975015
 H          1.5191154632       -0.4040236766       -3.4113867124
 H          2.8187729027        0.7663811135       -3.7190518255
 C         -0.5134762302       -0.1000436155       -0.6701734591
 H         -0.1876270392       -0.9166048478       -0.0352661162
 H         -1.0651515009       -0.4986342040       -1.5155832303
 C         -1.3708400458        0.8893063448        0.0977143151
 H         -1.4343702923        1.8388238647       -0.4315845467
 H         -0.9537392017        1.0655626046        1.0931237342
 O         -2.7101286844        0.4361524772        0.2313931581
 H         -2.6994892987       -0.5494102120        0.2943643805
 O          4.3128154161        0.2829685454       -1.6462815864
 H          4.0486753388        1.0988669195       -1.1800702880
 N          1.4199285398        1.3200920577       -2.3322275721
 H          1.9717924134        1.8894484978       -1.6951816045
 H          0.3699338276        0.4177353453       -1.0752490435
 O         -1.9368639897       -2.6454302020       -2.9654532794
 H         -2.5098075224       -3.1560833071       -3.5384566501
 H         -2.2411065820       -1.6989864418       -3.0678852145
 O         -1.1269919226       -3.7140882828       -0.4812468077
 H         -0.1635078333       -3.5552051730       -0.5121254142
 H         -1.4445540418       -3.4560981864       -1.3612116805
 O          3.7124807633        1.7362082797        2.1214187763
 H          3.7383007792        2.0505922648        1.1890398087
 H          3.7911715012        2.5160096799        2.6730309299
 O         -1.9571102211        3.9525249896        1.2740695986
 H         -2.3051659082        4.8227248926        1.4734399503
 H         -2.3198403351        3.3532034346        1.9708856571
 O         -2.7692844428       -0.2012808564       -3.3425948590
 H         -3.5732386917       -0.0045912065       -2.8195843231
 H         -2.1929327320        0.5757272823       -3.2345821686
 O         -2.4317717990       -1.4125560558        3.2535662195
 H         -1.7586840537       -0.7616879475        3.5218305096
 H         -3.2447583770       -0.8795099813        3.1552777937
 O         -1.0543646612        2.0211550044       -3.1005722365
 H         -0.1490353861        1.7119372539       -2.8361545042
 H         -0.9694558100        2.3920701563       -3.9798626009
 O          1.5646171728       -1.7742872689        1.5104285551
 H          0.9578341004       -2.3448779385        2.0220713509
 H          1.5963823969       -2.1802766691        0.6210679654
 O         -2.7713719373        2.4228936428        3.2957896245
 H         -2.0398529316        1.8457078807        3.5723971618
 H         -3.5224760325        1.8364764523        3.1380644364
 O          4.1895087272       -1.1097563518        2.1016836897
 H          4.1528019724       -0.1489018354        2.1808923215
 H          3.2735340504       -1.4132041045        1.9766052995
 O          3.7048553587        2.6917075579       -0.3925503065
 H          2.9319717528        3.3479667607       -0.3611727800
 H          4.4791176337        3.2192998885       -0.5934883090
 O         -2.9481315835       -2.1797747366        0.7095622932
 H         -2.2871767159       -2.7805095971        0.3048260433
 H         -2.7113041770       -2.0599467013        1.6495272478
 O          1.4759758135       -3.0365751024       -0.8607572358
 H          2.3684343514       -3.4527469981       -0.8845302211
 H          1.3036240089       -2.7387675637       -1.7738025057
 O         -4.3744421984        0.3053090927        2.3628530822
 H         -3.7896187728        0.5232225579        1.6086909019
 H         -5.1224465864       -0.1486309746        1.9570723924
 O         -4.7503080159        0.3953651363       -1.5866580119
 H         -5.2484251915       -0.2435817687       -1.0590192972
 H         -4.0553366434        0.7113312981       -0.9860921403
 O         -0.4232608493       -3.3147234695        2.5032287768
 H         -0.7779256563       -3.7496315330        1.7207521293
 H         -1.1432470571       -2.8162467112        2.9122241900
 O          3.9710941278       -3.9400419992       -0.9126375518
 H          4.2168551299       -4.6339671392       -0.2998715321
 H          4.5592699806       -3.1721606364       -0.6894965370
 O         -0.7273041624        0.6334715828        3.9596687956
 H          0.0112522647        0.7103406109        3.3074656460
 H         -0.3329085603        0.6922495779        4.8300115383
 O          0.6464855986        3.5775417821        2.0669072707
 H          0.7341593109        2.6158745473        2.0334942431
 H         -0.2770522253        3.7643794242        1.8160379840
 O         -5.5501186948       -1.4572545534        0.4274054211
 H         -6.1328244712       -2.2132226856        0.3570483287
 H         -4.6392351929       -1.8093941152        0.4780419787
 O          0.7307927133       -2.5412579419       -3.4398459420
 H         -0.2405675895       -2.5440455941       -3.3102658671
 H          0.9436402980       -3.3164905173       -3.9611763263
 O          1.1824201499        0.7921470891        2.1421365094
 H          1.2545334993       -0.1341237398        1.8290123415
 H          2.1061475643        1.0909169665        2.2501494816
 O         -0.6753542102        4.1738823170       -1.3281513925
 H         -0.9293751342        3.4513987003       -1.9258140719
 H         -1.2092504123        4.0808048150       -0.5280091431
 O          1.7923309103        4.3749357294       -0.2077317285
 H          1.4472586045        4.2054731851        0.6979301721
 H          0.9943724130        4.3500888688       -0.7725540133
 O          5.4552945183       -1.8777496530       -0.1662570269
 H          5.1033885280       -1.6429278070        0.7182401995
 H          5.2824757330       -1.1098633676       -0.7279468749
  94
       -152.89268037
 H          3.6431237634        1.0877382004       -3.9909657027
 C          3.6006579391        1.0709991361       -2.8939384820
 H          4.5547836587        0.6953053514       -2.5125832894
 C          2.4420859806        0.1627375841       -2.4503989672
 H          2.5757966518       -0.8432196328       -2.8474282353
 H          1.5151567254        0.5869666290       -2.8464869683
 C         -0.6357725081       -1.6801019127       -1.4818906164
 H          0.2330660421       -2.2033502076       -1.8669740859
 H         -1.1363847843       -1.1379107571       -2.2779588778
 C         -0.2725580307       -0.8138797747       -0.3235041969
 H          0.7688860968       -0.4013216195       -0.5545485804
 H         -0.1444151578       -1.3795071976        0.6032942876
 O         -1.1379443683        0.2452338250       -0.0398953033
 H         -1.5277365082        0.5869660205       -0.8815596638
 O          3.4549900087        2.3720402799       -2.3822900512
 H          2.5324037749        2.6598040150       -2.5462848732
 N          2.3198221330        0.0993358964       -1.0101002394
 H          2.3741281292        1.0269011159       -0.5976145902
 H          2.9977023718       -0.5226180278       -0.5856638851
 O         -2.5159557923        1.0507429418       -2.2211481183
 H         -3.0616881183        0.2438170555       -2.3587955175
 H         -3.1261545731        1.6742718484       -1.7495422148
 O          0.4743785790       -4.3990168044        0.1917273762
 H          1.0218682342       -4.0162008608       -0.5098527830
 H         -0.4567452321       -4.2522333017       -0.0840658228
 O          4.2136411654       -0.4168783808        3.4357951429
 H          4.5810133564        0.0571410973        4.1811960832
 H          4.7073431432       -0.1039688692        2.6271231160
 O         -2.4974664906        4.4849487717       -1.9922492196
 H         -2.2289428214        4.0634980521       -2.8251908529
 H         -3.2916154018        4.0163320292       -1.6940566632
 O         -4.1317575032       -1.0585827410       -2.1004852620
 H         -5.0323123034       -0.7247944023       -2.0939065251
 H         -3.8997417265       -1.1718419655       -1.1538929547
 O         -2.1707626732        0.4038786660        2.9204922103
 H         -1.3240200334        0.8205987064        3.2241661191
 H         -2.7916169150        0.5099587557        3.6424205388
 O         -1.6445093787        2.7835857929       -4.0250817340
 H         -1.9379423065        2.0545666517       -3.4266477997
 H         -1.9803783652        2.5820392349       -4.8981529586
 O          0.9531121830       -2.7279679475        2.1822310484
 H          0.7778645074       -3.3970688842        1.4733825754
 H          0.1169388077       -2.6715605893        2.6959198831
 O         -2.7230818880        2.5545874035        1.2818715808
 H         -2.5460361357        1.7074714910        1.7272256180
 H         -1.8999019476        2.8083069008        0.8354803389
 O          3.6488560863       -2.9007517089        2.3324940252
 H          3.8937208476       -2.1671038963        2.9174294481
 H          2.6758681766       -2.9778638893        2.3861544343
 O          4.0325259296        2.5379277276        0.3428015195
 H          3.9764640181        2.6292720981       -0.6228639753
 H          3.1234051512        2.5946274857        0.6767086889
 O         -3.3157801770       -3.3153953440        1.5018322157
 H         -3.8173709227       -4.1051506152        1.6980636849
 H         -2.7724083681       -3.5198793069        0.6511589083
 O          2.3430407002       -3.2799684656       -1.6188777930
 H          2.9524613168       -2.7958093148       -1.0296430067
 H          2.7894705475       -4.0912069803       -1.8662703477
 O         -5.8690710391        0.5508479368       -0.1765663293
 H         -6.4617745530        0.7183880321        0.5560285144
 H         -5.1070326491        0.0573558317        0.1911747535
 O         -4.2082792545        2.5875346610       -0.9057606625
 H         -3.7426706277        2.6290629672       -0.0346811706
 H         -4.9537129915        1.9777227654       -0.7610781044
 O         -1.4599407326       -2.2860822002        3.2253985529
 H         -2.1013733984       -2.7620391612        2.6682288812
 H         -1.6597975157       -1.3446830292        3.0926565146
 O          4.2309700567       -2.0235043067       -0.0267960467
 H          3.9741586370       -2.3757164520        0.8849041202
 H          5.0692259950       -2.4421711669       -0.2290689589
 O          0.1063116247        1.5064305695        3.6625671556
 H          0.7142334636        0.8037318445        3.3445690833
 H          0.3315898939        2.2822702325        3.1410385838
 O          1.3693900592        2.1310781347        0.9945189548
 H          1.4437353041        1.2519236856        1.4100881264
 H          0.5302439832        2.1485433517        0.5223736910
 O         -3.6667054807       -0.8283892935        0.5616516636
 H         -2.7890252014       -0.4215956561        0.6572847974
 H         -3.6154584716       -1.6985363806        1.0006164691
 O         -2.0111731509       -3.7664243639       -0.5958040577
 H         -2.5291775141       -4.1256961159       -1.3128625158
 H         -1.3476445646       -2.5137513216       -1.1225057148
 O          1.7281613720       -0.1784995535        2.3633584942
 H          1.4228353403       -1.1024977942        2.2442805038
 H          2.5975025657       -0.2348053797        2.7992194628
 O         -0.6874060861        3.5873050202       -0.3198351538
 H         -0.2546668075        4.3383717227        0.0890891727
 H         -1.3819461426        3.9673477892       -0.9277144412
 O          0.7586731648        2.8111793046       -2.5680975401
 H          0.3368088111        3.0349805964       -1.7220398572
 H          0.0650889555        2.9077766791       -3.2336166029
 O          5.3029044299        0.3177928364        1.1780806509
 H          4.9395526353       -0.3706939420        0.6018167573
 H          4.9068480647        1.1700725861        0.8921000719
