  312
       -524.29414821
 H         -1.0821764990        1.0046522360       -1.6831485595
 C         -0.8687072455        1.1415674774       -0.6287157176
 H         -0.5453790709        2.1636899727       -0.4595654931
 C          0.2072688898        0.1638042637       -0.1980328291
 H          0.3825341152        0.2555764361        0.8697138017
 H          1.1238989242        0.3596930297       -0.7441902486
 O         -2.0691313039        0.8681785880        0.0611637050
 H         -1.9855054248        1.2064893257        0.9757020643
 N         -0.2708004285       -1.1882520428       -0.4879637234
 H         -0.7377837715       -1.2109275286       -1.4289887977
 H         -1.0093000563       -1.4824956203        0.1926056994
 H          0.5035469033       -1.8716893661       -0.5311988395
 O          5.1157088028        2.5136101017        0.2744234437
 H          5.7325730718        1.9005475511       -0.1682959382
 H          5.6606919331        3.1354127633        0.8027653778
 O          7.1215414496        1.7504381172        2.4444142781
 H          7.6946988253        2.5258661293        2.3747307906
 H          6.8962602422        1.6472125605        3.4037426582
 O          3.5060921257       -5.4340478283        2.7148055434
 H          2.8583511082       -5.1746783000        3.3809783428
 H          3.6218818599       -4.6508570326        2.1359699686
 O         -0.3733601030        2.4742389728       -6.1683191565
 H          0.3381151841        2.9606376783       -5.7039891999
 H          0.0683748621        1.9191807231       -6.8144924418
 O          5.7312403198       -1.1723443698        5.2619041099
 H          6.2031319171       -2.0058895224        5.2023134093
 H          4.8257079344       -1.3624877062        4.9851962384
 O         -6.2199936272        2.7499536810        3.5063297077
 H         -6.2251590189        3.6541152911        3.8224175582
 H         -5.5642648056        2.7273428117        2.7660373607
 O          6.7130755490        0.8330899832       -0.9918798889
 H          7.3396172097        0.4068029765       -0.3826146747
 H          6.9714678183        0.6179594063       -1.8966944025
 O          0.9210311695        3.8426922404        3.7540928513
 H          1.6123884641        4.3013237647        3.2550778049
 H          0.8982236302        2.9387969779        3.3826016399
 O         -0.0795760336       -1.8116030970        2.3001090486
 H          0.8504858203       -1.5720934795        2.1398175851
 H         -0.1567429459       -2.7554665134        2.1312919324
 O         10.1754743820        1.8981566592        0.4847900577
 H         11.0699054017        1.6508745515        0.7220394732
 H          9.6211403735        1.1084621880        0.6124778361
 O          0.1794207272        6.0855796322       -1.4099422737
 H         -0.2251132101        6.8881674100       -1.7388997864
 H          0.3875548603        6.2601337788       -0.4608674100
 O         -1.5138885883        2.1790289877        2.2840529113
 H         -1.9196040041        2.3381034863        3.1522154729
 H         -0.6378474033        1.7879889074        2.4781984029
 O         -4.6421124516        4.8235905923       -3.2364622197
 H         -4.0209584745        4.6641038115       -3.9604286168
 H         -5.3191760918        4.1265822770       -3.2979168181
 O         -1.0030469854        1.2459568913       -3.8300022473
 H         -0.8586350804        1.4634089844       -4.7660073008
 H         -0.8494007451        2.0726735764       -3.3541370356
 O          0.0272077785       -4.6663803753        1.7413827728
 H          0.6631432839       -5.3622225416        1.4200017611
 H         -0.8177404110       -5.1146630553        1.8780886036
 O          3.4230776660        2.1714099543       -6.1342756118
 H          2.8260969465        1.4960555293       -6.4953708076
 H          2.8458634785        2.7586053966       -5.6058339478
 O         -3.3291327671       -0.7652192009       -5.0661548669
 H         -3.4335198556        0.0717090568       -4.5734098781
 H         -4.1973319490       -0.9322039677       -5.4442410836
 O         -5.2812567680       -4.4540243006        1.8397513359
 H         -5.0685996840       -3.7356568011        1.2034607280
 H         -6.2386000757       -4.5564297518        1.7587897293
 O         -2.5239202142       -1.9837880344        0.7917472905
 H         -2.8680985795       -2.6254112461        0.1482117983
 H         -2.4073080232       -2.4434248609        1.6445998706
 O         -0.2304843282       -3.7513984907       -0.8792917288
 H         -0.0688476625       -4.1881597479       -0.0323401097
 H          0.3025174581       -4.1924028561       -1.5691519071
 O          0.8163108662        6.6390407292        1.1248500873
 H          0.1217177402        6.6273011817        1.7986717926
 H          1.5702217397        6.1784533771        1.5236771325
 O         -5.8043383765       -0.7781456932        3.3647925938
 H         -5.1213067717       -0.4731116537        2.7160634405
 H         -5.6705178109       -0.1984398382        4.1331648015
 O          4.1945992604       -0.6652128386       -0.4270488402
 H          4.2791204135        0.0394276940       -1.0950684252
 H          4.9071384006       -1.3104633287       -0.6089131886
 O          1.1536229814       -0.6366524319       -3.5232914599
 H          0.4631210182       -0.7274346747       -4.2067383801
 H          1.1273718837        0.2912360721       -3.2379987249
 O         -0.0278985808       -6.8363614445       -1.5747758501
 H         -0.9394414926       -6.7010986230       -1.2668410347
 H          0.5037575034       -7.0231154947       -0.7955247782
 O         -6.4670940025        3.1707175370       -0.2723336037
 H         -6.4328701978        4.1360746936       -0.4113653973
 H         -5.6795206566        2.9674567813        0.2635682532
 O         -1.6319270845       -1.2238889438       -2.7904930374
 H         -2.5885956026       -1.2451462465       -2.5748374498
 H         -1.4789338282       -0.4004897585       -3.2859950830
 O          5.1250457135       -4.4500659676       -2.4124471777
 H          5.9142778997       -4.7347378371       -1.9516737366
 H          5.1650154632       -3.4645354072       -2.4430727814
 O         -2.6873835106       -5.5814494570        1.8806710347
 H         -3.6331582181       -5.3836329407        1.9588604866
 H         -2.5970740485       -5.9484824168        0.9806427783
 O         -4.4371355744        2.6392921386        1.5202105353
 H         -4.1257077838        1.7169378974        1.6264886265
 H         -3.8726276836        3.2144713415        2.0727882828
 O          4.8145530395        3.9370242674        3.7384705661
 H          4.3239544369        3.0962073626        3.6918514158
 H          5.3067383871        3.9062690334        4.5608717185
 O         -3.7761592405        0.0593160840        1.9466042411
 H         -3.0830843434        0.0173150774        2.6455581207
 H         -3.4660033572       -0.6012278936        1.2944932015
 O         -3.3618496467        4.1685121167        3.4554682970
 H         -3.1237341339        3.6170363876        4.2111225669
 H         -2.6384853849        4.8199629839        3.3620157444
 O         -6.0918018081        0.0891642207        0.2126457240
 H         -6.6135883516        0.6163929855        0.8507493374
 H         -5.5098126286        0.7150940537       -0.2528553296
 O          2.8417889518        5.0126745697        2.1202506271
 H          3.5662633933        4.9132755363        2.7517269115
 H          3.2287300277        4.8592459873        1.2414088465
 O          1.7717884701       -6.3435321241        0.7746470788
 H          2.4585182905       -6.3310212882        1.4668263011
 H          2.1577792004       -5.8506816745        0.0247077088
 O          8.2542592787       -1.7620547774       -1.7169874480
 H          8.0816742367       -1.1637592291       -2.4554371244
 H          8.7898088145       -1.2859136028       -1.0776896816
 O          3.6812854982        1.4254204596        3.8677739295
 H          4.0313932535        0.8296298673        3.1682197639
 H          3.0296824062        0.9353602037        4.3724520887
 O         -4.2153059310       -1.1180278800       -2.0818926314
 H         -4.4067175907       -1.7599625980       -1.3697605274
 H         -4.3077468960       -0.2382758544       -1.6844760387
 O         -0.5951324537       -2.5305463190        5.1794561965
 H         -1.1954236632       -2.3718223060        5.9119997134
 H         -1.1669684526       -2.7812873999        4.4208330686
 O          3.9028808643        4.7590437633       -0.4419815501
 H          4.2936345628        3.8654904943       -0.3104756622
 H          4.6212128996        5.3739507970       -0.2736346989
 O         -4.8775221689        1.0232172878        5.2092822271
 H         -3.9978158342        1.4329308676        5.2349465931
 H         -5.4483281638        1.6797243847        4.7747268963
 O          8.8765681442        3.8205612664        1.8819136260
 H          9.3593397114        3.2220670090        1.2721926841
 H          9.5358906162        4.3590439496        2.3205932871
 O         -3.5850891310       -3.3898806916       -3.8353033613
 H         -3.5455457930       -2.4801394707       -4.1705056293
 H         -4.5334839694       -3.6450617542       -3.8664354674
 O          1.5673051533        1.9021640967       -2.4760967667
 H          2.5222351208        1.7115692714       -2.3774148265
 H          1.3450819554        2.5330191609       -1.7710815327
 O          1.4277322773       -4.0085375519        4.0270460016
 H          0.7774114148       -3.6310391398        4.6388083129
 H          0.9264271442       -4.2167831509        3.2153037993
 O         -2.8315555000       -3.7412732937       -1.2893968458
 H         -1.8496713460       -3.6720551045       -1.2689722162
 H         -3.1150415081       -3.5853092553       -2.2166009797
 O         -5.1635606573       -2.4574046789        0.0511269234
 H         -5.4974670262       -1.6017799865        0.3714262153
 H         -5.8946238091       -2.8572933536       -0.4687386037
 O          2.6861137768        1.5431978618        0.9303857661
 H          3.6094213835        1.8214133171        0.8074400429
 H          2.1512702389        2.2285056854        0.4938538252
 O          2.8488548725       -4.6384337863       -1.0193636007
 H          2.3875491300       -3.8607312671       -1.3925565189
 H          3.6513322895       -4.7500417958       -1.5656741155
 O          1.3028550825        3.5546289520       -0.2979684468
 H          0.4724051421        3.9452570677        0.0387816121
 H          1.9309227289        4.2753988756       -0.4035398938
 O         -8.0187325477       -3.8297453342        1.4098621046
 H         -8.0584758207       -2.8749751060        1.6182767402
 H         -8.7601330014       -4.2331823870        1.8611622251
 O         -1.1480353371        4.2220936018        0.6612033444
 H         -1.9333437003        4.3192292430        0.1028431421
 H         -1.3223293619        3.4515868127        1.2493884932
 O          8.3581923464       -0.1056172312        0.9887043754
 H          7.9332316072        0.5675619150        1.5720709168
 H          8.1291410315       -0.9441113143        1.4189281558
 O         -2.6257793721       -6.2825803004       -0.7364091883
 H         -2.7912983354       -5.3305185145       -0.9856963345
 H         -3.3139592639       -6.8026354497       -1.1500390876
 O         -3.8961657109        1.6070365877       -3.8073667503
 H         -3.3631622971        2.3338240444       -4.1969860432
 H         -4.8233148247        1.8994425780       -3.8144523181
 O         -5.9866901524       -1.0163398425       -4.1859305966
 H         -5.3683471512       -1.0101668479       -3.4302071185
 H         -6.7056199000       -0.4094645680       -3.9626173542
 O          5.4815724440       -3.7126844912        3.8277105070
 H          5.1706159878       -4.5787597765        3.5357531129
 H          4.6805446175       -3.1673262622        3.9221966052
 O          1.2123070539       -0.4083346267        4.9010763397
 H          0.4755095408       -1.0389913583        4.9987353347
 H          1.9973101939       -0.9772016224        4.7842839749
 O          3.7697614700       -3.3379594055        1.0317575786
 H          4.6485542118       -3.1121749705        0.6971142457
 H          3.3494243261       -3.8302162529        0.2819909730
 O         -6.2263131813       -3.7055701076       -3.8052100447
 H         -6.6232831910       -3.7650901109       -2.9268416269
 H         -6.3298203894       -2.7765856711       -4.0838304475
 O         -0.9456677107       -3.4064701781       -4.2617132296
 H         -1.8349029473       -3.7746103882       -4.3597016401
 H         -1.0670286283       -2.6708218533       -3.6252570259
 O          2.1034252468       -2.1076708569       -1.4195886429
 H          2.8764661594       -1.5979885712       -1.1100194853
 H          1.7917250636       -1.6916522112       -2.2380119823
 O         -1.0152229980        3.7813652441       -2.5213592399
 H         -1.8031392888        3.8150663304       -1.9426583284
 H         -0.4648927016        4.5252675427       -2.2381765451
 O         -0.6045484079       -1.0804314357       -5.6178592968
 H         -0.5947813386       -2.0385446788       -5.4517880124
 H         -1.5410876508       -0.8315150159       -5.5596923984
 O         -5.8139465484        5.7446316104       -0.8017463775
 H         -4.9999867671        5.9141549060       -0.3213911372
 H         -5.5856991947        5.7467857401       -1.7399154547
 O          0.8878232850        1.2976060705        2.8697621111
 H          0.9796595336        0.5930158025        3.5421242030
 H          1.6756766896        1.3006145722        2.2924890749
 O          6.8390450591       -1.9629148483        2.2917724378
 H          6.1655253580       -1.2565478272        2.3863712954
 H          6.5221178381       -2.6891249968        2.8620304114
 O          5.0343238585        0.0377401688        2.0225947372
 H          5.6854181450        0.7503963717        1.9453361179
 H          4.7220721083       -0.1669616459        1.1126346546
 O         -6.2742051568        2.6396966922       -2.9699782110
 H         -7.0035534010        2.0503212404       -3.2079940550
 H         -6.3256028236        2.7322298913       -1.9962404907
 O          4.9238598695        0.6328842028       -4.6957170456
 H          4.4355615664       -0.1912678721       -4.8712817300
 H          4.4720661205        1.3078937975       -5.2788932103
 O          1.6028180387        3.4712209549       -4.6214879314
 H          1.5040430243        2.8334772392       -3.8787810069
 H          1.9031944878        4.2879617126       -4.1884915399
 O         -3.2604513982       -1.4539766705        5.7282253447
 H         -3.8376371540       -2.1693517356        5.4254733189
 H         -3.8407226244       -0.7052996650        5.9066218773
 O          6.2197430259        4.5987003783        1.4671970812
 H          5.8244291452        4.4666127854        2.3467035546
 H          7.1761620070        4.5017650431        1.5698819846
 O          6.1273489312       -2.5766367692       -0.1915865669
 H          6.5065493827       -2.3980419561        0.6965967691
 H          6.8436751740       -2.4071324168       -0.8241320600
 O         -1.0761649422        5.5674782529        2.9747430382
 H         -1.1215568778        5.1911767904        2.0731846772
 H         -0.4122074827        5.0222979523        3.4366693524
 O          4.1558911072        1.3328123372       -2.2867734502
 H          4.4481218464        1.0486327101       -3.1894909169
 H          4.7593562971        2.0184976682       -1.9983781546
 O         -2.5208586973        3.7199466033       -4.7580513823
 H         -1.9819658056        3.4355497135       -5.5068411343
 H         -1.8866182684        3.8519476465       -4.0215271973
 O          0.9685814200       -4.7952503418       -3.0437358737
 H          0.6842061717       -5.6838851574       -2.7661754688
 H          0.2667257716       -4.4126366266       -3.6079742093
 O         -2.2810412937        2.0139353158        4.9152276924
 H         -1.4912601050        2.2101997379        5.4638537663
 H         -2.0952492176        1.1203082772        4.5652654335
 O         -8.1015354894       -1.1738605594        1.9900437292
 H         -8.4043396044       -0.2639771492        1.8957242730
 H         -7.2995571732       -1.0950646635        2.5427140075
 O          3.1831449936       -4.1620074372       -4.4836412746
 H          3.9325016799       -4.4709843346       -3.9618599948
 H          2.3843416631       -4.4381134839       -3.9935196784
 O         -7.3273399637       -3.3491207808       -1.2153758217
 H         -7.7075415964       -3.7606297990       -0.4243240658
 H         -7.7569659035       -2.4758116488       -1.2979020370
 O         -3.2779733135        4.0650918202       -1.0567317174
 H         -3.7273553064        3.2203155383       -0.8669897479
 H         -3.7681707760        4.4475482178       -1.8158218135
 O         -1.8582317859       -0.3309768220        3.7077986503
 H         -1.2047967557       -0.8772273161        3.2266041007
 H         -2.2655153955       -0.8888894584        4.3981967268
 O          7.3310904292        0.1271955446       -3.6574615636
 H          8.0160460746        0.4898236939       -4.2201048621
 H          6.4783508740        0.3413023937       -4.1024702517
 O          3.2400860965       -2.0364077785        4.0968759724
 H          2.6309536063       -2.8077797706        4.1131690547
 H          3.1122511295       -1.6444341043        3.2048661206
 O          5.1411141512       -1.8080257910       -2.7721809485
 H          5.9760039947       -1.5223281625       -3.1450557861
 H          4.4650057854       -1.7130970230       -3.4758324974
 O         -4.2304999418        1.5033486405       -1.1793548963
 H         -4.0184347146        1.5782033137       -2.1359323028
 H         -3.4011292230        1.2566020669       -0.7059744497
 O         -8.1067880839        0.6044502296       -3.3421368822
 H         -8.9301667538        0.5430519660       -3.8258120643
 H         -8.2267069489        0.1168335850       -2.4996071448
 O         -2.3274243137       -3.2297422720        3.2036869040
 H         -3.2227410583       -3.1232681403        3.6021068080
 H         -2.3226112231       -4.1353151509        2.8554400953
 O          0.1710360251        2.1963943121        5.9351561643
 H          0.5715092085        2.8802363683        5.3795657248
 H          0.5923821916        1.3574405629        5.7118814731
 O          2.4411008375       -1.1605021606        1.7229237435
 H          2.6609261591       -0.3590060011        1.2275041315
 H          2.9069806533       -1.9111094767        1.2929614324
 O         -7.8253624094        1.6334090402        1.5627547886
 H         -7.6449739633        2.3084663790        0.8854685207
 H         -7.4557808206        1.9857212863        2.3895551807
 O          1.7046888764        0.0585284926       -6.6143893797
 H          0.8277692959       -0.2950852250       -6.3958979149
 H          2.3285900802       -0.6189927481       -6.3277966417
 O          6.2327092883        1.4727545884        4.9073522815
 H          6.3516123567        0.5514817758        5.1873469736
 H          5.2825643669        1.5172709706        4.6994419903
 O         -8.2130803106       -0.7871214812       -1.0449407721
 H         -7.3773344639       -0.4637256033       -0.6090308434
 H         -8.8862475888       -0.7343591565       -0.3637112321
 O          2.4289435902        5.3329047305       -2.8193243815
 H          1.6376819577        5.6763251531       -2.3725826056
 H          3.0709681737        5.1535322885       -2.1218463672
 O          3.3248405921       -1.5536245376       -4.7536582253
 H          2.5182079710       -1.2234012326       -4.2977949459
 H          3.2340552036       -2.5379611943       -4.7924609753
 O         -4.8030771716       -3.1055299834        4.1181849586
 H         -5.2558243441       -2.2699160307        3.8576527114
 H         -5.0736032067       -3.7526300199        3.4382002342
