  132
       -218.69142971
 H          0.2605520625        1.0619549240        1.4245811466
 C         -0.7411491213        1.0338076125        0.9870716174
 H         -1.4750123533        1.1173398392        1.7866508573
 C         -0.9453268007       -0.3016834434        0.2674166358
 H         -1.7730426731       -0.1958514580       -0.4311580987
 H         -1.1833946559       -1.0744990818        0.9962973900
 O         -0.9424802605        2.1482979589        0.1547732939
 H         -0.2410119273        2.1604738763       -0.5176762593
 N          0.2645636431       -0.6801782375       -0.4832158744
 H          0.9709919525       -1.1166870941        0.1486950392
 H          0.6864782651        0.1824931900       -0.9176837080
 H          0.0353005210       -1.3675359797       -1.2335063547
 O          2.1258626445       -1.9233649327       -3.3386736587
 H          1.2354173264       -2.2363425057       -3.0766581419
 H          2.6907385052       -2.7091676000       -3.3888523904
 O          2.9171646083        3.6628084865        2.4273983412
 H          3.0254144094        4.5769131309        2.6904028995
 H          2.0934203362        3.3383465468        2.8704392615
 O          2.1115845752        0.7829294666       -3.7957636961
 H          2.1443512882       -0.1887096317       -3.8044129076
 H          3.0239551676        1.0653266984       -3.6500209131
 O          2.6222929384       -4.1638715719       -0.3141444159
 H          3.4159149872       -4.3548307926        0.2093083331
 H          2.9186864067       -4.1290063484       -1.2395762484
 O          5.2247443344        0.5729320234        1.0045755756
 H          4.9096751794       -0.2927819410        1.3356592006
 H          5.8543140769        0.3928754705        0.2911613340
 O         -0.7053577916        0.4227409212       -3.0616724779
 H         -1.1515488723        1.2789043955       -2.9413547324
 H          0.1109056648        0.6033342966       -3.5396979192
 O          0.8023410539        2.6755381650        3.6471949213
 H          0.9471524217        1.7236767341        3.5359492215
 H         -0.1287776265        2.8451306868        3.4359146855
 O         -2.2086906798        2.6582051976       -2.7343259352
 H         -2.2036122650        3.4969293650       -2.2317730571
 H         -3.0159623438        2.6650965882       -3.2691251936
 O         -1.8020742759       -4.3492342315        1.0631161875
 H         -2.3659998050       -5.0540063308        1.3836724332
 H         -2.4012818090       -3.6106329272        0.8081498310
 O          4.2735712734       -1.6803538865        2.1658359651
 H          4.1871590013       -1.3232448184        3.0682278828
 H          3.3579088041       -1.7696689824        1.8183359140
 O          5.2866815329       -2.4024993145       -1.1681696477
 H          5.3565511521       -2.9686521924       -0.3822946842
 H          4.4674264474       -1.8464781842       -1.0261971256
 O         -5.7046823514        0.4557243835       -2.0789567985
 H         -5.3764127024       -0.4590636361       -2.1195399746
 H         -6.2119598481        0.5396590777       -1.2471960608
 O          1.4259888768       -0.0023752622        3.1920804731
 H          2.2004757901       -0.0967890410        3.7785865152
 H          1.5911116187       -0.5998617611        2.4528254891
 O         -3.4797312409       -2.4212518768        0.3685387226
 H         -3.7739724574       -1.6553692010        0.8890033052
 H         -3.8173078786       -2.2809929319       -0.5291096512
 O         -1.0955948895       -1.0919087078        3.5333249839
 H         -1.8248288495       -0.4838776582        3.7139183542
 H         -0.2746142266       -0.5783180783        3.5815791430
 O         -2.2969503336       -1.5373211059       -3.7663186259
 H         -2.3978692656       -1.4820694646       -4.7170113534
 H         -1.7332342237       -0.7632200236       -3.4999254977
 O          6.6667670252       -0.1056824241       -1.2715273861
 H          6.2914024563       -1.0140145071       -1.3065490358
 H          7.5870990856       -0.1654973901       -1.5270308860
 O         -3.2614474232        0.6947052100        3.7402041891
 H         -3.6794954346        0.4329160943        2.8818007821
 H         -3.9011979544        0.4989338091        4.4258660639
 O         -4.4389686584       -1.9784751726       -2.2133755103
 H         -4.8636758142       -2.7517918639       -2.5869990556
 H         -3.6510910552       -1.7892074498       -2.7693195096
 O         -4.3129861737       -0.0112562720        1.4151073353
 H         -5.2495887439        0.1840259080        1.2229017462
 H         -3.8313855146        0.4492030635        0.7021784165
 O          5.0352314317       -3.9836679533        1.0782370795
 H          4.8247632680       -3.1855018920        1.6141324328
 H          5.5876480150       -4.5486385702        1.6183558938
 O         -5.2876170423        4.4036073090       -1.8622488137
 H         -5.1479355689        3.7534450142       -2.5671319745
 H         -4.4162974516        4.7734522062       -1.6666710965
 O          4.4254746083        1.2356397209       -2.2523963547
 H          4.2476166085        1.9468390178       -1.6208109441
 H          5.3208388440        0.9174384069       -2.0601882595
 O         -1.9640608219        3.0498811891        3.3744684257
 H         -2.2340030061        3.7020923750        4.0227735026
 H         -2.4252284992        2.2161355135        3.5976874398
 O          4.8307869986        1.9100359898        3.3784710087
 H          5.1888537920        1.5525147436        2.5501957341
 H          4.1632934643        2.5686448404        3.1124653199
 O         -6.6818077541        0.8540705776        0.4094862990
 H         -7.5983950499        0.7945525391        0.6783829156
 H         -6.4466752936        1.8345647581        0.4508008276
 O         -0.0281295818       -4.8491924126       -0.9597542466
 H         -0.6416150236       -4.7553947581       -0.2093687830
 H          0.8682376658       -4.8042950181       -0.5970239761
 O         -6.0233698651        3.3455381983        0.5125926031
 H         -5.9535075108        3.7653650258       -0.3698871894
 H         -5.1271862619        3.4283255185        0.8794166937
 O         -2.5704969512        4.8141423618       -1.1418021780
 H         -1.9170661577        5.4781416887       -0.9240293510
 H         -2.8015015541        4.3527430658       -0.2991711136
 O         -4.7965330064        2.3858466049       -3.7469077183
 H         -5.1941254629        1.6685478054       -3.2148406612
 H         -5.3421679217        2.4893362596       -4.5269207072
 O          3.1506218247       -0.8879281010       -1.0783510292
 H          3.5505569666       -0.0579822609       -1.4025225065
 H          2.7152989724       -1.2723295601       -1.8670869237
 O         -3.4388426394        1.2558312002       -0.7800279982
 H         -4.2613796161        1.0961975440       -1.2775784924
 H         -2.8300017548        1.7038329231       -1.4005969040
 O          1.8037105245       -2.1141357018        1.2290183588
 H          2.1014498842       -2.7883824374        0.5826122401
 H          1.1921538847       -2.6178522305        1.8442500809
 O          3.8107443733       -0.2448912526        4.4290968227
 H          4.2137994660        0.6068486483        4.0899446924
 H          4.0352501650       -0.2990389145        5.3577683199
 O          1.3004649803        1.6372837451       -1.3475478272
 H          1.6014192998        1.4905314847       -2.2633284682
 H          2.0811204330        1.9160080525       -0.8236164423
 O         -3.3310451944        3.3799032781        0.9749622017
 H         -3.2062023010        2.5700088490        0.4430745389
 H         -2.7043561912        3.3211061494        1.7129969321
 O         -0.2137291682       -2.6360365719       -2.3042985702
 H         -1.0272579049       -2.5592222247       -2.8188375431
 H         -0.1980623287       -3.5251226590       -1.8580312449
 O          3.4454338654        2.3581332389        0.0662870945
 H          3.2208933581        2.9453128930        0.8052238667
 H          4.0232079882        1.6675061561        0.4528645425
 O          3.8714317131       -3.9658994914       -2.7857415888
 H          4.3432480870       -4.6496107696       -3.2607591946
 H          4.5414768284       -3.4094346451       -2.3207708917
 O          0.1270622636       -3.3702869277        2.7398280121
 H         -0.3637267094       -2.6657331839        3.1952026258
 H         -0.5292099700       -3.8121856757        2.1739795993
