  91
       -152.91746229
 H         -0.4303583110        0.4556137492        1.0174333038
 O         -4.4017772729       -0.9845001972        1.9347332129
 H         -3.5094118099       -1.2822457180        2.1984783807
 H         -4.9758244738       -1.1213482820        2.6892706331
 O         -1.2586582422        0.0441660055        0.5283226346
 H         -1.5961640261       -0.6874600087        1.1600432204
 H         -0.8997137687       -0.3992828935       -0.3327779734
 O          1.1537464610        3.9026636957        2.3138685473
 H          0.3355295333        4.0100862909        1.8211762025
 H          1.8422082094        4.3163175486        1.7697584707
 O          3.3752486373        0.7852464923       -1.3022350943
 H          3.3982222694       -0.1109459581       -0.9222847194
 H          3.9829637446        1.3163565420       -0.7297939958
 O         -0.6348958202       -0.4663660488        4.3763017774
 H         -0.8505199081        0.4758268404        4.3230698778
 H          0.3258082901       -0.4988168269        4.5180919856
 O          2.1387269607       -0.3496332319        4.4120165833
 H          2.7224389458       -0.6935375425        5.0888772244
 H          2.2468842497       -0.9077661966        3.6192453495
 O         -0.1709343451       -0.9647715368       -1.5025200071
 H          0.3767996699       -0.3280862854       -2.0193943849
 H         -0.8179724107       -1.3236115630       -2.1690089264
 O          0.0175320737       -4.8036357741       -0.6407657516
 H         -0.8071638975       -4.5056796094       -1.1413007441
 H          0.0295760224       -5.7591430320       -0.7052568594
 O         -2.0905166922       -3.9974300073       -1.8783814614
 H         -2.5153153259       -3.3761793676       -1.2553486315
 H         -1.9196823392       -3.4647541991       -2.6688069640
 O          1.6490376164       -2.9453654745       -1.7448409870
 H          1.2332638561       -3.7548831918       -1.4018990222
 H          0.9723879219       -2.2484671662       -1.6099095886
 O          2.8081379643        4.4811847006        0.1714615106
 H          2.8753231305        5.1520125452       -0.5074767546
 H          2.2753373731        3.7392459402       -0.1905316559
 O         -2.9758864213       -1.9854419288       -0.3418049450
 H         -2.9321242925       -1.1846462361       -0.8928837815
 H         -3.7613439798       -1.9033133551        0.2046486687
 O          3.1168925076        1.8533719711        2.8489939426
 H          2.4773694277        2.5772966339        2.8298827315
 H          2.8359581994        1.2455098207        3.5436501918
 O         -1.0614155184        2.5357342471       -1.3492515059
 H         -1.5459597870        1.6857947762       -1.3579220459
 H         -0.1470862214        2.3672072436       -1.0280309255
 O          0.0251288222       -3.5633155025        1.7137241142
 H          0.0808039393       -4.2718537898        2.3566423077
 H         -0.0014047988       -3.9938245251        0.8255012365
 O          0.7537066008        0.8358995849        1.7390486872
 H          0.4204941588        1.2676910166        2.5599164911
 H          1.2494095607        0.0163826098        1.9591297129
 O          1.8932803793       -1.5564953547        2.0070988348
 H          1.2509627067       -2.2785651199        1.8875997080
 H          2.5204121166       -1.6117445161        1.2596997664
 O         -0.4312440472        2.4485162436       -3.8985339248
 H         -0.7087198360        2.6239953296       -2.9599115003
 H         -0.3865832254        3.2952788690       -4.3430488362
 O         -1.7962630331       -1.6414655202        2.3477448603
 H         -1.2688493818       -2.4268872969        2.1136150745
 H         -1.3770992287       -1.2479150277        3.1575559934
 O          1.3967192198        2.2653218162       -0.4278742194
 H          2.0990328939        1.6908129031       -0.8216185490
 H          1.2921551949        1.9281506987        0.4805283475
 O         -1.4964314411       -1.8684263340       -3.5541191352
 H         -1.9101153065       -1.0852877057       -3.9490102740
 H         -0.6457269396       -2.0107183133       -4.0344598052
 O         -1.9715029019        2.8107383419        1.2791230798
 H         -2.7955192471        2.3180316201        1.1486493044
 H         -1.6161953083        2.9181215687        0.3812964637
 O         -2.7798568512        0.4400149396       -1.6311428778
 H         -3.0113331066        0.5439565164       -2.5632385387
 H         -3.4502652169        0.8663633366       -1.0726390214
 O          1.3442371845        0.4683422065       -3.1298507018
 H          2.1855426961        0.7153460506       -2.7155928996
 H          0.9217051725        1.2617527172       -3.4929287346
 O          3.4160994965       -1.7570095271       -0.2155144749
 H          2.8272241785       -2.2686082847       -0.8303534035
 H          4.2921549574       -2.1386335612       -0.2787380143
 O         -2.4251944694        0.6312466657       -4.3821797879
 H         -2.7793821810        0.7334422748       -5.2662589950
 H         -1.6674365788        1.2459915165       -4.3040205742
 O          4.5571804578        2.2635016403        0.5345767166
 H          4.2700823956        3.1816594466        0.4402693171
 H          4.2084205314        1.9868365569        1.3981623747
 O          1.0227473419       -2.0183685378       -4.3589134252
 H          1.4483400939       -2.5745033617       -3.6916988896
 H          1.2936115932       -1.1113984208       -4.1506536881
 O         -0.6488336337        2.1513895968        3.5408044555
 H         -1.2299613725        2.4303488259        2.8013741392
 H         -0.1408006151        2.9298568024        3.7864434215
 O         -4.2604057454        1.3324876843        0.5186054764
 H         -5.1061682818        1.7727046885        0.6113209966
 H         -4.3114336370        0.5066266078        1.0427480361
