  309
       -524.49754382
 O         -1.2788513048       -1.4989259284        3.6305738626
 H         -0.5957069387       -1.7501474135        2.9811735745
 H         -1.6069853906       -2.3326206811        4.0359124354
 O          1.6920544254        1.4496533940       -3.1418565529
 H          2.0785476143        2.0245275722       -2.4531478203
 H          0.7213275760        1.4793114424       -3.0281978565
 O          4.9435377638        2.4194206388       -0.0543440158
 H          4.5198785738        2.5959361333        0.8084919078
 H          4.2955813613        2.7221847835       -0.7271086528
 O          5.9852935577        0.1010258111        0.4808086930
 H          5.5502395379        0.9208477461        0.1451123115
 H          6.3095189825       -0.3594848635       -0.3230881862
 O         -0.9667258423        1.2374734684       -3.1159425678
 H         -1.1056456292        0.2587640824       -3.0882650919
 H         -1.5226503689        1.5254340799       -3.8704543464
 O          0.2448720031        3.1603083395       -1.0117119112
 H          0.1086677765        4.0678148346       -0.7015923347
 H          0.1535621116        3.2374644337       -1.9735587623
 O         -0.1265104578       -4.5997427099       -4.8466982555
 H          0.3884803617       -4.7572575194       -4.0196828845
 H         -0.0006790630       -5.3723258319       -5.3962472719
 O          5.0480606710       -2.6918377472       -4.5928579253
 H          5.5831809289       -1.8866990878       -4.6600810406
 H          4.1768768881       -2.3798236091       -4.2825488220
 O          1.1271191545        0.7927029914        3.2084045217
 H          1.9670582677        0.9525343935        3.6726509394
 H          1.1878458907       -0.1198220836        2.8563209999
 O          1.0674304266       -4.9483858652       -2.5128253666
 H          0.5406744932       -5.4753663757       -1.8679816727
 H          2.0005620571       -5.1747977247       -2.3088662023
 O          2.1912701208        4.8884475715        0.3666982653
 H          1.5257553180        5.5062235692        0.0410748053
 H          1.7189631911        4.2597527777        0.9344285593
 O          8.9328006246       -1.4772666806        1.0447869784
 H          8.2778384178       -1.4161279306        1.7547637883
 H          8.9174487796       -0.6341570192        0.5698277725
 O         -2.4947301307        2.7796608639       -1.5624558024
 H         -3.3393487725        2.4605765558       -1.9155679178
 H         -1.8072505248        2.2537799240       -2.0279202434
 O          1.1609270731       -1.7440206919        2.5008742522
 H          1.4851199118       -1.9583790932        1.6060603454
 H          1.4359807299       -2.4839551946        3.0711987278
 O         -0.2146578482        5.8983087560       -0.5646275137
 H         -0.5586131860        6.0924641139        0.3256263299
 H         -0.9962053731        5.8357330424       -1.1541009345
 O          5.9670561323        4.4407715596       -2.3073259628
 H          5.6324230498        4.7729887672       -1.4389799375
 H          5.4450964908        4.9230116566       -2.9592529451
 O          2.9403841179       -1.2829623785       -3.5929022732
 H          3.2923158770       -0.7671758997       -2.8288053991
 H          3.1144939453       -0.7177106152       -4.3655342630
 O          3.5348491744       -0.1696140000        1.7619907486
 H          2.8826626936        0.2768915781        1.1994292961
 H          4.3675114482       -0.1405394045        1.2716515951
 O         -4.7948145333        1.6011477346       -2.5064289175
 H         -5.5303556218        1.6939537593       -3.1489131699
 H         -5.1733389401        1.8507442612       -1.6375610914
 O         -2.3643786399        5.3554930000       -2.1076052980
 H         -2.3892570958        4.3912553933       -1.9043625646
 H         -3.2472941103        5.6603410292       -1.8781855206
 O         -2.1409897289       -3.7254647854        4.8135673462
 H         -1.3096696276       -3.8621138519        5.3270236301
 H         -2.2357583979       -4.4588006928        4.1945487927
 O          4.9938438323        5.3666766938       -0.0114908400
 H          4.0460050241        5.3080280989        0.1600559210
 H          5.4286965327        5.0952235548        0.8203698098
 O         -5.4421952016        2.5226149532       -0.0932231209
 H         -6.2580816100        2.3161355712        0.4111796543
 H         -4.7423685727        2.3277661126        0.5594240875
 O         -5.7998019008        0.2925691399        3.6008239737
 H         -4.9321985167       -0.1140464970        3.3916901173
 H         -5.6782495758        0.7873556603        4.4126866050
 O          6.1444585597       -0.1688840058       -4.1725962646
 H          5.8430436821        0.7080220396       -3.8758597302
 H          6.4977251982       -0.5652165730       -3.3563591924
 O         -0.8274105409       -2.0301115889       -5.7134212616
 H         -0.0773516321       -1.4114783047       -5.7232603345
 H         -0.4815950218       -2.9190633560       -5.5474251812
 O         -3.5959081128       -0.8989065869        2.5475724601
 H         -2.7130995134       -0.9944217627        2.9804763042
 H         -4.0133879978       -1.7932365087        2.6402594480
 O         -2.4481131485       -4.1012905359       -3.4081916343
 H         -1.7154044104       -4.3495376733       -3.9929578063
 H         -2.0368619174       -3.7637424403       -2.5933800277
 O         -0.7735435016       -3.5211211941        1.6119190720
 H         -1.5246278229       -4.0419893814        1.9754084524
 H         -0.0049002576       -4.0949557182        1.6724210856
 O         -2.8359635404       -5.7030276603       -0.1990825715
 H         -3.5974715413       -5.8716015682       -0.7678684776
 H         -2.4881599436       -4.8292834183       -0.4957541055
 O         -1.5640649399        3.5715255530        4.7691116861
 H         -1.2527728103        3.0179409800        5.5044214101
 H         -0.7942691322        4.1131659486        4.4982915217
 O         -0.6754312556        1.5195790421        6.4009539649
 H         -1.6005806542        1.2433068166        6.4626591018
 H         -0.2065978241        0.6766910786        6.2255451934
 O          1.8813889446        1.0191123144       -0.0482171958
 H          1.1682807311        0.3322285536        0.0058830174
 H          1.4323370389        1.8392600230       -0.3032209965
 O          7.5298276445        3.0012897000       -0.5263480062
 H          7.4997595706        3.6237098509       -1.2593596062
 H          6.5822658467        2.8537992387       -0.3103042307
 O          3.0103213231        3.3000617059       -1.6529706318
 H          2.6158881238        3.8623185979       -0.9582056004
 H          3.3121638273        3.9171578162       -2.3523324860
 O          4.2406174437       -5.7771683644        1.0261019317
 H          4.8463734285       -5.0145254541        1.1493886760
 H          4.7635849659       -6.5667589760        1.1606652397
 O          5.6268681514       -3.8677945569       -2.3403536893
 H          6.5705503937       -3.9103568103       -2.1628006199
 H          5.4992277765       -3.4979780023       -3.2525023572
 O          1.6034435573       -5.0504581779        1.2652237849
 H          2.4366828071       -5.5382995530        1.1972354759
 H          1.7772709563       -4.2097548730        0.7662457181
 O         -1.4394150348       -1.3365558069       -3.1794980577
 H         -1.4300973319       -1.5861733232       -4.1226089626
 H         -0.6663287594       -1.7901877272       -2.7899774179
 O          3.6218756016        4.9186310072       -3.7087656501
 H          2.8973432946        5.5414449570       -3.4998162066
 H          3.2924283045        4.3469598159       -4.4204372059
 O         -1.1545411841        5.8762485711        1.9979901978
 H         -2.0278181395        6.2537239390        2.1407917146
 H         -1.3212923657        4.9344098726        1.8177577891
 O         -6.0334767809        4.1478598936        2.9111518959
 H         -5.5581485606        3.7570923226        3.6555705139
 H         -5.3526180476        4.6286641567        2.4046572814
 O         -5.9129568312       -0.6011646859        0.4861710149
 H         -6.7774392281       -0.8809920954        0.8511101301
 H         -5.4447377954       -0.1765014655        1.2071322134
 O         -1.8663826967        3.3711597704        1.0544358582
 H         -2.4245524864        2.6942455604        1.4969987213
 H         -1.9687250476        3.2068349540        0.0984664750
 O         -4.2349547293       -2.3450825241       -4.4595685730
 H         -4.4165204843       -1.8345638130       -3.6432015219
 H         -3.5239081556       -2.9656955996       -4.2061145152
 O         -4.8758074333       -1.0671533971       -2.2019956896
 H         -4.3486038762       -1.2778566717       -1.4154267286
 H         -4.8165634447       -0.0960540878       -2.3168507523
 O         -3.1384612488       -0.5331300554       -6.1138724105
 H         -3.6502294109       -1.1636222812       -5.5644744623
 H         -2.2982722816       -0.9871993053       -6.2600621431
 O         -6.9133868207       -2.2269439911        3.7101590254
 H         -7.5700120438       -2.1703972753        2.9979792223
 H         -6.6126773067       -1.3072439786        3.8197725324
 O          6.5563831887       -1.3937445660        2.6808431962
 H          6.3037730729       -0.8968794533        1.8802062365
 H          6.5374542681       -0.7147192030        3.3945310844
 O          7.0441385850       -1.0094657134       -1.7177886118
 H          7.3363822454       -1.9069780963       -1.4386647472
 H          7.8058974291       -0.4251932077       -1.5652136736
 O          1.7620450334        2.9552839140        5.8045394154
 H          1.4849065642        3.6920051688        5.2447272094
 H          0.9591269523        2.5201783924        6.1199489199
 O         -2.7883081473        1.8058758107       -4.9715845199
 H         -3.5705621629        1.9461755206       -4.4323528739
 H         -2.9394648278        0.9436261439       -5.4406011200
 O         -4.7760494487       -3.2527262542        2.5039462490
 H         -5.0178497227       -3.3244480116        1.5530301749
 H         -5.6035175998       -3.0324520078        2.9880764984
 O         -4.7690698380       -4.9065023789       -2.1221618388
 H         -4.8846111561       -4.2167717746       -1.4444690580
 H         -3.9707376120       -4.6767833432       -2.6265164851
 O          5.8409614979        4.3346774063        2.3613839831
 H          4.9636849051        3.9682034575        2.5400563511
 H          6.4338036976        3.5697642338        2.3207539138
 O          3.6069570686        2.7426101019        2.2459334696
 H          2.6801371129        2.7965544917        1.9940093056
 H          3.6602825927        2.0990526373        2.9689985694
 O         -8.6133130981        0.3643747153       -2.4124802514
 H         -8.1906665359       -0.5285825886       -2.4155002033
 H         -9.5219250511        0.2387303037       -2.6877648400
 O          1.3484578407        6.1230599470       -2.9979895751
 H          0.8016968101        5.3667962905       -3.2812980426
 H          1.0038560641        6.3730455999       -2.1353982816
 O          5.0351016326        2.1074298670       -3.1957674657
 H          4.3770525130        2.4515638675       -3.8053741736
 H          5.4681142565        2.9007704910       -2.8009404035
 O          4.5180002634       -2.2297506709       -0.5651116757
 H          4.8676403818       -2.7929243729       -1.2899978719
 H          4.4495745938       -1.3243974715       -0.9222538239
 O         -2.7764740409       -5.0602969002        2.4425696852
 H         -3.5573706234       -4.4831003132        2.5388445860
 H         -2.8800783055       -5.4959780142        1.5764001875
 O         -1.6858218614       -3.3915799964       -0.8827702469
 H         -1.1461516625       -3.4462838832       -0.0666096115
 H         -2.2595540245       -2.6180789181       -0.7280537257
 O          0.8733533257       -2.3388507377       -2.2529395838
 H          0.8939852404       -3.3163826103       -2.3768754334
 H          1.5901132760       -1.9758891246       -2.8082545777
 O          2.0317477139       -2.7112541259        0.1465717505
 H          2.9773196754       -2.5499814176       -0.0664861000
 H          1.5386808426       -2.5148208272       -0.6749022362
 O          0.7515596016        3.0004324410        1.8358775896
 H          0.8302763801        2.1095249059        2.2547990425
 H         -0.1461786293        3.0360857088        1.4560203140
 O         -8.1104128656       -3.5984029370       -0.5320769048
 H         -8.4239060589       -4.4087917435       -0.9323604369
 H         -7.9198921911       -2.9664886280       -1.2744933905
 O          3.0539033830       -1.1906073489        5.4337193260
 H          3.4416669721       -1.6002589851        6.2055926260
 H          3.4277213683       -1.6471570895        4.6340879514
 O         -8.2380027985       -1.6213091681        1.3946904493
 H         -8.7636541030       -0.8524394900        1.0774088023
 H         -8.4101671791       -2.3567131741        0.7911062008
 O          4.0445103149       -2.2677578324        3.2567991661
 H          5.0021458695       -2.0961281266        3.2135748108
 H          3.6629740888       -1.5837961510        2.6574388061
 O          3.7261807960        0.2800336043       -5.7050514294
 H          4.6552803544        0.1326820553       -5.4857661198
 H          3.5592575593        1.2360969862       -5.6240390828
 O          3.5400032626       -5.5140964013       -1.6984870118
 H          4.2909084181       -4.9947055893       -2.0265910028
 H          3.7030558836       -5.6452061592       -0.7535578781
 O         -5.0339904344        5.0250453213       -1.0085464475
 H         -5.8911150692        5.3919157370       -1.2224875270
 H         -5.1935683889        4.0923665744       -0.7371144668
 O          0.2545068860       -3.6713613312        5.9231643083
 H          0.9048955146       -3.8689303919        5.2330090903
 H          0.2893002746       -2.7080427991        6.0668688886
 O         -6.4571015840       -3.8404388168       -4.0062492798
 H         -5.7298843853       -3.3437519294       -4.4300401445
 H         -6.0006114220       -4.4182515030       -3.3635426600
 O         -7.2073126969        2.0038899182        1.8170397538
 H         -6.9576849237        2.8603386211        2.2284357668
 H         -6.8339644641        1.3301849954        2.4074001492
 O         -0.1973035853        3.9695371921       -3.6118004491
 H         -1.0520054337        4.4075799258       -3.5599870915
 H         -0.1740168851        3.4568384851       -4.4467853854
 O         -0.1871461665        2.4712865416       -5.8576239212
 H         -1.1449665068        2.3807957630       -5.9261342821
 H          0.1531487041        1.5585190519       -5.7756897891
 O          2.6755519152        2.7712646954       -5.1693796867
 H          2.2467699530        2.2988281302       -4.4012012037
 H          1.9495363221        2.9784421785       -5.7638212361
 O          5.9131178505       -3.6724777110        1.1755009698
 H          5.3645467100       -3.0653963246        0.6311382006
 H          6.2609686359       -3.1307621763        1.8947866819
 O          7.3460275038        1.9470072185        2.0782637838
 H          6.9141335621        1.2696560583        1.5271802480
 H          7.9450323541        2.4111813562        1.4870912389
 O         -3.8263580679        1.8466477510        1.9621441233
 H         -3.5379468260        0.9435251937        2.1531492824
 H         -4.0398319742        2.2428936496        2.8379225168
 O          0.6598185409        4.7360999078        3.8567234155
 H          0.3485579571        5.5467643756        3.4404449927
 H          0.7820313806        4.0983140331        3.1166577009
 O          3.4602597632        1.3164881057        4.5752348989
 H          3.3669008973        0.4510838016        5.0170700683
 H          2.9816288618        1.9702021710        5.1311276881
 O          6.2164312183        0.6796288323        4.3005616636
 H          6.6886423917        1.3243472190        3.7575345354
 H          5.3038354820        0.9976989102        4.3788341599
 O         -1.5409330671        1.2785736396        3.3398985356
 H         -0.6234461876        0.9798047151        3.4283610153
 H         -1.5691381371        2.1668153339        3.7432255337
 O         -5.4540710112       -3.1885907448       -0.0578602733
 H         -6.3809717640       -3.4812476416       -0.1103551859
 H         -5.5008891483       -2.2082325025       -0.0114720647
 O         -7.3607756971       -1.9643348797       -2.4408596044
 H         -6.4715267461       -1.6072620376       -2.2116285558
 H         -7.1562033516       -2.6518875690       -3.1325704074
 O          8.8801752316        0.7469026676       -0.7566399050
 H          8.3619053182        1.5888835227       -0.6917981176
 H          9.7433253929        0.9809009185       -1.0952779952
 O         -3.1116781200        0.5183309539        5.4077592736
 H         -2.4897442053        0.5270586937        4.6485936326
 H         -3.4982094561       -0.3716294168        5.4344246087
 O          7.9129098356       -3.3046925592       -0.6682196370
 H          8.5133528112       -2.7867054150       -0.0957444213
 H          7.2367593510       -3.6416576649       -0.0519445322
 O          3.8989945352        0.1722575503       -1.6030494109
 H          4.3216126187        0.9078675124       -2.0810312822
 H          3.1537710385        0.5477789048       -1.0851206963
 O          2.0045522088       -3.9978543558        3.7425985096
 H          1.8386156933       -4.5414139464        2.9484856883
 H          2.9078733418       -3.6593822868        3.6513627427
 O         -4.1630580313        2.7626889558        4.4603783419
 H         -3.8848481535        1.9464886637        4.9343526063
 H         -3.4044975735        3.3552433127        4.5709519660
 O         -9.1575369787        0.6433284423        0.3621763487
 H         -8.5848434699        1.2408778244        0.8689080292
 H         -8.8539595080        0.6816998785       -0.5577024218
 O          0.9734224888        0.0103882679       -5.4602416959
 H          1.1915439403        0.1683797110       -4.5279615999
 H          1.8208701410       -0.0449762441       -5.9178275677
 O          0.3278501704       -0.8996075630        5.7162000529
 H          1.2663530367       -0.9137661957        5.4719243716
 H         -0.2025534152       -0.9996043611        4.8968234451
 O         -4.2338493629       -1.9486701558        5.1784578001
 H         -5.0889180583       -2.3808570157        5.1421232802
 H         -3.5580871300       -2.6445888426        5.1459956831
 O         -0.1228417955       -6.3214416205       -0.5840205974
 H          0.3653465765       -5.9843348420        0.1824561470
 H         -1.0698795174       -6.2525315501       -0.3897025076
 O         -3.9326342896        5.2498098171        1.4851473452
 H         -4.3270068869        5.3846939169        0.6079230599
 H         -3.3006080645        4.5225389139        1.3649198070
 O         -6.8696774136        1.5184378532       -4.1577917388
 H         -6.7616185602        0.8405058325       -4.8274325396
 H         -7.5501186610        1.1953926105       -3.5333630125
 O         -0.2453825004       -0.6836609254       -0.0054540187
 H         -0.4904115892       -1.1921348241        0.7729975901
 H         -0.1259480855       -1.3037811205       -0.7338261036
 O         -2.9829377660       -0.9763487750       -0.3268934809
 H         -3.2358737630       -0.7372799060        0.5765257925
 H         -2.3318495065       -0.3384119273       -0.6401520712
 O          3.5402662037        4.7309235469        4.2602756823
 H          4.3248545897        5.2762674679        4.1982892092
 H          2.7852424695        5.2529985745        3.9806759911
