  87
       -147.58439674
 O          1.3409944252        3.2488291505       -1.4764991549
 H          1.6914724896        2.8445491833       -2.2865456274
 H          1.1983349784        2.5022071501       -0.8677603938
 O          1.6612919393        0.5301979344        4.1708823233
 H          2.0205891926        1.1986363163        3.5330298743
 H          2.0187581428        0.7586727148        5.0290035307
 O         -0.7913070260        1.3310928641       -3.5906117145
 H         -1.1640689328        1.9705599306       -2.9702847493
 H          0.1647418711        1.5151270323       -3.6401662194
 O          1.3426571091        4.4917311673        1.0657461200
 H          1.9033572750        3.9231817600        1.6076456595
 H          1.5335647540        4.2734895399        0.1416327341
 O         -3.5904459951        2.5647612721        1.5233748304
 H         -3.3880880500        1.7645309093        2.0336623807
 H         -2.7954170957        3.1128450594        1.5256296374
 O         -0.1990642555       -2.3815346541        2.0007210837
 H         -0.6561237438       -3.2128918401        1.8514439027
 H         -0.3876629547       -1.8333976358        1.1817581692
 O         -2.5175724417       -2.4529419375       -2.0969442716
 H         -3.2271047817       -1.8389764710       -1.8465258656
 H         -2.0808127518       -2.0782818621       -2.8781767481
 O          2.3323057637       -1.7666391879        2.7459279449
 H          1.4392855021       -2.1096101269        2.5502670492
 H          2.1799118077       -1.0491893066        3.3831804287
 O          4.3430010277       -1.2019441118       -0.8504457999
 H          5.2104832317       -1.5333199894       -1.0879771339
 H          3.8621477604       -1.9678902760       -0.4405843507
 O          1.1652947213       -2.7774395371       -3.3965828916
 H          0.9644548559       -3.2596884708       -2.5821426376
 H          0.3485790306       -2.3205829929       -3.6545253325
 O         -0.8754723953       -0.7102331836        4.0375188292
 H         -0.0540735532       -0.2148987414        4.1714865269
 H         -0.6651658350       -1.4158015047        3.3936299544
 O          3.0694483139       -3.1519963063        0.3768707820
 H          2.2163709835       -3.4286060556        0.0005523417
 H          2.8905160459       -2.8179399677        1.2661008038
 O          2.9760071888       -0.7317421928       -3.2442676462
 H          3.4608854229       -0.8772782697       -2.4155777296
 H          2.3790784513       -1.4989111182       -3.3553460273
 O         -4.3518336539       -0.6715843152       -1.0539177988
 H         -4.1552990845        0.2984560070       -1.0949042876
 H         -5.2892035393       -0.7524875992       -1.2323997058
 O         -1.0935044417       -1.2602125340       -4.1169934118
 H         -1.3021864280       -1.2931361912       -5.0509548740
 H         -1.0158954081       -0.3062420717       -3.8880585674
 O          4.3413380745        0.0464904894        1.6822325002
 H          4.4429076916       -0.2345753699        0.7591866444
 H          3.8561517014       -0.6694054158        2.1147052888
 O         -3.4948492688       -2.0457295719        1.2681261804
 H         -3.3442211574       -1.3227030485        1.8967233742
 H         -3.8448794308       -1.6261945018        0.4665487080
 O         -1.3287304998        4.2746030311        1.0935880039
 H         -1.6791383782        5.1616848391        1.1880760630
 H         -0.3474914142        4.3660994980        1.1492307284
 O         -1.3977596397        3.2719656662       -1.5386218294
 H         -1.5712882557        3.6175245100       -0.6482975252
 H         -0.4422054983        3.4301983492       -1.6591848067
 O          1.9433577761        1.6456104692       -3.6289456023
 H          2.3216904994        0.7418680977       -3.4503633523
 H          2.3374855057        1.9296489205       -4.4540776599
 O         -1.8362713553       -3.8798003446        0.1149040915
 H         -2.1397387193       -3.6473382682       -0.7778757971
 H         -2.4120783672       -3.3272314417        0.6796167215
 O         -3.9616447406        1.9434967760       -1.0872265593
 H         -3.9600317027        2.2043139382       -0.1423643308
 H         -3.1986955791        2.3862166639       -1.4766455371
 O          2.7026009533        2.1184568401        2.3023066616
 H          3.4759404171        1.5454704834        2.1194917922
 H          2.0678581908        1.8881000447        1.6001711108
 O         -3.1034518835        0.1916000356        2.9474596177
 H         -3.7732354216        0.1482870214        3.6316845240
 H         -2.2545532188       -0.0704467187        3.3832226073
 O          0.6915195142       -4.0092963610       -0.8105646381
 H         -0.1998682751       -3.8942304739       -0.4086610870
 H          0.7941998284       -4.9526969261       -0.9459865366
 O         -0.7881736631       -0.8672973277       -0.1545320976
 H         -1.3642201938       -1.3323494149       -0.7801349520
 H         -1.2613523927       -0.0885244449        0.1668259615
 O          1.6245142570        0.8751621093        0.0161018905
 H          2.2757771076        0.2835777842       -0.3704372316
 H          0.7951237220        0.3788028485        0.0736160396
 O         -0.6686659181        1.3392026227        1.5119763325
 H         -0.6689842655        0.8331862831        2.3271243682
 H         -0.6593909867        2.2666414632        1.7718107377
 O          0.2410868686        3.0734762594        3.6563529847
 H          1.1635991327        3.2222462507        3.4299102372
 H          0.2231226474        2.3949236351        4.3342973144
  87
       -147.59040358
 O          1.2891413563        2.9676076571       -1.0708429109
 H          2.1294645892        3.2684929947       -0.6931455597
 H          1.0443443474        2.2053231490       -0.5175451604
 O          2.5390169252       -0.5843095161        3.2785053117
 H          2.5267827208        0.3858167102        3.2479533959
 H          1.6159142879       -0.8689157260        3.3809224002
 O          0.5594522863        1.4320612427       -3.2876805104
 H         -0.4060634794        1.5540447510       -3.2999807009
 H          0.8777223859        2.1195671360       -2.6778398469
 O          0.0551786837        3.6347344497        3.1794318735
 H          0.3223952299        4.4220506440        3.6538021086
 H          0.8686594209        3.1114434744        3.0313774772
 O         -4.9027270576        0.2269673704        0.4012280957
 H         -4.7204620940       -0.6506842671        0.7570318220
 H         -4.5685313922        0.8645239019        1.0541856916
 O         -0.8622481652       -2.9624169335        1.3442527441
 H         -0.9183513574       -2.1766122397        0.7224366081
 H         -0.3393662941       -3.6101898335        0.8449565959
 O         -3.4098939484       -2.4200647305       -1.7888443311
 H         -3.6418314527       -1.4729137529       -2.0157653674
 H         -4.1119656719       -2.9517020887       -2.1659169702
 O          3.9797442177       -1.4226360919        1.1949025966
 H          4.7964549578       -1.7695524856        1.5572213707
 H          3.4398366259       -1.1328882619        1.9702541065
 O          4.6236872129        0.8781912410       -0.3151284502
 H          4.2154169091        0.7320958528       -1.1897791248
 H          4.4351560388        0.0822924137        0.2081384500
 O         -0.9290849403       -3.5017850250       -2.5738512347
 H         -1.8063627020       -3.1613369854       -2.3372305425
 H         -0.5327154112       -2.8477953322       -3.1804489104
 O         -0.0970205054       -1.6403794357        3.4841461008
 H         -0.0778567398       -2.2086060943        4.2553514085
 H         -0.3133787239       -2.2223989344        2.7096943296
 O          3.0832080482       -3.2519141295       -0.7666248970
 H          2.2010429258       -3.6027276881       -0.5544176169
 H          3.3238954026       -2.6131815993       -0.0769831053
 O          2.9391869525       -2.2741588466       -3.2174718342
 H          3.5800846714       -2.7437949343       -3.7515386614
 H          3.0023935175       -2.6563689688       -2.3058258241
 O         -4.0483267406        0.0645980952       -2.1935216703
 H         -3.3619888113        0.7272978424       -2.3819636293
 H         -4.4273460801        0.2814013817       -1.3202634942
 O          0.3683673435       -1.5782474119       -4.0657037392
 H          1.2825842489       -1.8444341290       -3.8783234353
 H          0.3558689758       -0.6167189920       -4.0041037183
 O          3.6423877327        3.1981663072        0.4409760931
 H          4.0224691119        2.3209491665        0.1665525569
 H          4.3474856585        3.8348504726        0.3248240066
 O         -2.8255606099       -0.7226458533        3.2185699786
 H         -1.8987086698       -0.9525290209        3.3789896241
 H         -3.1411596626       -1.3121471636        2.5151038059
 O         -2.0835327748        3.7657518523        1.3788857938
 H         -2.6949702666        3.0845637842        1.6942739375
 H         -1.3655424440        3.8132859156        2.0299251560
 O         -1.3422223838        3.8547063904       -1.2420152813
 H         -0.3807870843        3.7355348079       -1.1720551122
 H         -1.6785666194        3.8786800720       -0.3251212576
 O          3.2169676790        0.3834805195       -2.5890909138
 H          2.4166776762        0.7978414069       -2.9300856310
 H          3.1773252738       -0.5463617958       -2.8678342417
 O         -3.5464212139       -2.3563019955        1.0111896008
 H         -2.7306735163       -2.8317223470        1.2335534624
 H         -3.5697047180       -2.3747148889        0.0380074613
 O         -2.1414928390        1.9887071978       -2.8822969244
 H         -2.5653106842        2.4249132686       -3.6225153724
 H         -1.9098160738        2.7161923784       -2.2372169496
 O          2.2648232471        2.1345290457        2.5617076649
 H          1.7430151218        1.6449922812        1.8989552799
 H          2.8825396266        2.6505765789        2.0157766352
 O         -3.6793334488        1.6752324524        2.4362248014
 H         -4.2402950415        2.0248431130        3.1299317124
 H         -3.2882833137        0.8432759146        2.7928131333
 O          0.5402158597       -4.3459848925       -0.5506928225
 H          0.0005564476       -4.0220305337       -1.3211276222
 H          0.6184680295       -5.2926748093       -0.6729331117
 O          0.8062756141       -1.3623238391       -0.8745080855
 H         -0.1004788233       -1.0874875216       -1.0618361630
 H          1.2846400538       -1.3639272266       -1.7065388747
 O          1.0232636131        0.8610446801        0.5777560127
 H          0.1547077186        0.7996192923        1.0119684178
 H          1.1605108440        0.0122136038        0.1126716686
 O         -0.8927030065        0.9398213820        2.4095493291
 H         -0.4867480061        0.2751221190        2.9756521790
 H         -0.8127171634        1.7946174254        2.8439295526
 O         -1.6384589590       -0.2322848748       -0.1872855168
 H         -1.9246914502        0.3499100555       -0.8956195056
 H         -1.8925088547        0.1952373369        0.6380792479
  87
       -147.57184528
 O          1.9710822181        2.6888511904       -0.4309361267
 H          2.2101796037        2.2177297063       -1.2411880861
 H          1.3602771355        2.1037565182        0.0544694611
 O          2.6876608886        0.6292922220        3.7531705283
 H          2.8191523072        1.4717171613        3.2694014789
 H          3.0329296970       -0.0785374776        3.1946623383
 O         -1.5748868559        2.9958776188       -3.0524296357
 H         -1.0206822111        3.4643512236       -2.3677559472
 H         -1.9009081268        3.6867052499       -3.6308754048
 O         -0.1076852809        3.0627793333        2.9270613561
 H         -0.1448965290        2.5390879223        3.7425158344
 H         -0.1221865586        2.3934930282        2.2225375169
 O         -3.5738977428       -0.1658010018        1.5638458967
 H         -3.3250513986       -0.9894750108        1.1262840616
 H         -3.1394549827       -0.1875406709        2.4449727481
 O         -1.3816829530       -2.7379772832        2.6152771388
 H         -1.6757609949       -2.7926968792        1.7006659634
 H         -0.4444824989       -3.0043469441        2.6416463283
 O         -2.2954993141       -2.2291435969       -0.1860956865
 H         -1.4701085147       -1.6725353140       -0.3177935674
 H         -2.8752385636       -1.9190559906       -0.9049135032
 O          1.2833302800       -3.3726074798        2.5043226992
 H          1.9828071919       -2.7017613645        2.5483858003
 H          1.4293354649       -3.8652629230        1.6837258687
 O          2.3567755224        1.0992813285       -2.8313339802
 H          3.0570472902        1.4701385747       -3.3704964621
 H          2.5357974881        0.1389398253       -2.7542831652
 O          2.8143782005       -1.5943850209       -2.7359425807
 H          3.3889908219       -1.9030046348       -3.4384208518
 H          1.9621388549       -2.0818083430       -2.8626142492
 O          0.1981969894        0.9481888223        4.6882474600
 H          1.1071816636        0.7622087478        4.3557368549
 H          0.2572690393        0.9212440107        5.6435528155
 O          1.5070648921       -4.5593915518       -0.0374884910
 H          0.6245251166       -4.4274063137       -0.4407887060
 H          1.6940033523       -5.4977373037       -0.0854552054
 O          3.6422321435       -2.7352334861       -0.3063877815
 H          2.9707041836       -3.4318781561       -0.2528276021
 H          3.4323495460       -2.2360436737       -1.1116643021
 O         -3.4779987492       -1.0117094100       -2.3521447362
 H         -3.5679140910       -0.0357923709       -2.1829131477
 H         -4.3050862287       -1.2788416417       -2.7543130458
 O         -1.3398169478       -1.3762720965       -4.1871535695
 H         -2.0833834296       -1.2310591936       -3.5806578202
 H         -0.9404824049       -0.5016722221       -4.3653597128
 O          3.4795776477       -1.6440245765        2.1533621437
 H          4.2420622606       -1.9791190616        2.6283418374
 H          3.5906946635       -1.9443335764        1.2229702112
 O         -2.1369759399       -0.3918517638        3.8099602512
 H         -1.3429430195        0.0873773011        4.0902083662
 H         -1.8526867768       -1.2980171050        3.5949715978
 O         -1.7672252253        4.2646299792        0.9755965684
 H         -2.5151129046        3.6503580390        0.9362701164
 H         -1.2684712542        4.0449584931        1.7763400170
 O         -0.1776627241        4.2720052711       -1.2455088756
 H          0.6542436136        3.8688757738       -0.9407250787
 H         -0.7252998720        4.4154441868       -0.4478262057
 O         -0.1029211052        1.0647531378       -4.4002946334
 H         -0.6600629592        1.7521645353       -3.9954667028
 H          0.7398002910        1.1041110918       -3.9283601136
 O         -0.9563189273       -4.2854883102       -1.1624863556
 H         -1.5474952652       -5.0310660992       -1.2699741047
 H         -1.5012695695       -3.5485823821       -0.7722341012
 O         -3.6983598331        1.5851412687       -1.9835640505
 H         -3.7755805768        1.8971290053       -1.0643263378
 H         -2.9661829892        2.0905907692       -2.3795596470
 O          2.6288215377        2.9646979316        2.3697225287
 H          2.6462865050        3.0224317707        1.4064803744
 H          1.7311145601        3.2338742796        2.6333315800
 O         -3.8691619252        2.3363451712        0.6768299121
 H         -3.7689758699        1.4279045940        1.0424971964
 H         -4.7253579169        2.6469819776        0.9741126581
 O          0.5359522256       -2.8785172340       -3.1060013221
 H          0.0492522743       -3.4854693071       -2.5309683276
 H         -0.1494776089       -2.3818823224       -3.6190830280
 O         -0.8529158482        1.5531730486        0.6610369427
 H         -1.7024119203        1.5324129531        1.1252661067
 H         -1.0157684298        2.0421771888       -0.1534855556
 O          0.0460163687       -1.0021602713        0.2705382775
 H          0.3074304909       -1.3882465552        1.1110207610
 H         -0.2210408963       -0.0848351728        0.4459518545
 O          4.0594276598        0.6444182697       -0.2557384896
 H          3.6072547242       -0.1800664130       -0.0628796193
 H          4.0539540346        1.1701109277        0.5462807460
 O         -2.8345131433        2.4632486220        3.0718065932
 H         -2.8308062616        1.6755309574        3.6223150597
 H         -2.5495797408        3.2051399683        3.6069818832
  87
       -147.59010904
 O          0.7149758897        4.1693823701        0.3625605516
 H          1.4633126976        3.5963308725        0.6226075540
 H          1.0402135378        5.0693177632        0.4034716363
 O          2.7902833032        0.0290998657        3.8291121245
 H          2.0149850323        0.5905561835        3.6312177800
 H          3.4601608593        0.2625365051        3.1745728333
 O          0.0231598533        0.6900141592       -2.2840136833
 H          0.1520801118        0.5802452163       -1.3212155896
 H          0.5689506376        0.0157536882       -2.7207847164
 O          0.9064950764        0.7351402672        0.2834402786
 H          1.5885238845        1.4441273658        0.2866769832
 H          1.4058077348       -0.1027152610        0.3191652289
 O         -1.8058601408        2.5799859700        3.1818587059
 H         -0.9092744947        2.1882411038        3.1639585046
 H         -2.0271704795        2.7515811665        2.2546387883
 O         -1.0849356811       -1.1039269258        3.5399093185
 H         -1.6955088305       -0.6019597400        4.1153198962
 H         -1.6753704440       -1.4653084363        2.8369418159
 O         -1.7143272341       -2.1647000062       -3.0602061245
 H         -2.5717932944       -2.5732379741       -2.8282748872
 H         -1.6152596260       -1.4506664637       -2.4113840985
 O          1.4336724236       -2.0977932084        3.0004059412
 H          0.5362616022       -1.8430680813        3.2762753600
 H          2.0243798890       -1.4521292282        3.4581320167
 O          3.3444763274       -0.0507060093       -1.8621881183
 H          2.8526386800       -0.4718618970       -2.5797103425
 H          3.1110064117       -0.5394583431       -1.0661995392
 O          0.4146150341       -3.5897779612       -2.7725262599
 H         -0.4607743354       -3.1020938132       -2.8615032132
 H          0.3734870684       -4.3354699165       -3.3716069287
 O          0.4220362522        1.0587811907        2.9193089068
 H          0.5400335399        0.9921182719        1.9482030391
 H         -0.0959428599        0.2660659536        3.1769858117
 O          2.4604564644       -1.4469428056        0.5797513996
 H          2.4551840696       -2.2949902660        0.0669765580
 H          2.1037475240       -1.6988006158        1.4600020247
 O          1.5174150809       -1.2481495161       -3.5808978758
 H          1.2248452970       -1.1719629910       -4.4902243485
 H          1.2185736880       -2.1239417839       -3.2592058427
 O         -4.6890622760       -0.3161744128       -2.0842246920
 H         -3.8711246487        0.1472115599       -2.4002334400
 H         -5.4073677242        0.0749886450       -2.5823990805
 O          0.6702255986        3.2958769167       -2.3336792601
 H          0.4287865380        2.3456138249       -2.3729800400
 H          0.6374298200        3.5505353929       -1.3980827702
 O          4.2899588089        0.3860077295        1.4160694399
 H          3.7119523270       -0.3314798490        1.0847673934
 H          5.1342312375        0.2790613871        0.9770820072
 O         -4.1823607528       -2.9393819890       -2.2644546158
 H         -4.4004992665       -1.9880416997       -2.1224676539
 H         -4.7905046659       -3.2552115885       -2.9335845228
 O         -2.1542389380        3.5777504131       -2.2807804961
 H         -1.2168395331        3.6448284384       -2.5254464761
 H         -2.1688998044        3.4573062257       -1.3179282581
 O         -1.9300464602        3.5048613031        0.5298720162
 H         -0.9679725812        3.6701567146        0.5263094352
 H         -2.3487686416        4.3453005594        0.7260816610
 O          3.3614920718        2.7046634757       -1.9993870466
 H          2.4900118046        2.9749057154       -2.3445390125
 H          3.4241131814        1.7408406083       -2.1193347958
 O          0.9742032909       -4.4963667323        1.7319487440
 H          1.3610937515       -5.2066451102        2.2453231032
 H          1.1343722680       -3.6795334829        2.2383771819
 O         -2.6158149199        1.0129370436       -3.0364722827
 H         -1.7047944162        0.7546029515       -2.8177706901
 H         -2.6328298381        1.9764715654       -2.8739395440
 O          2.8364364476        2.5620965705        0.5526103159
 H          3.4596701606        1.9475945345        0.9745821231
 H          3.1578575503        2.6942346714       -0.3805585837
 O         -2.8485479665        0.6048484155        4.6612719390
 H         -2.7946973479        0.9193920661        5.5640915871
 H         -2.5781672946        1.3661533286        4.0972775459
 O          2.2004733247       -3.7693248067       -0.6093537443
 H          1.7212510699       -4.1788726899        0.1351072343
 H          1.5878917939       -3.7539628076       -1.3589216748
 O         -1.0942654922       -1.1573026993       -0.5629123451
 H         -1.6188407513       -0.4663170454       -0.1277045628
 H         -1.1143085943       -1.8997189160        0.0546808971
 O         -2.8017910176        0.6429525344        0.6313344624
 H         -2.5799065705        1.5702466738        0.4957912059
 H         -3.5871725763        0.4521842166        0.1122428031
 O         -1.4797447828       -3.1941316459        1.3331383667
 H         -0.6951121263       -3.7560260196        1.4119722953
 H         -2.1589567151       -3.7146559531        0.9020514100
 O          1.9968990846        3.5887478081        3.1018406677
 H          1.4246191723        2.8322326231        3.2648449734
 H          2.5713947841        3.3399210097        2.3716901656
