  87
       -147.59040358
 O          1.2891413563        2.9676076571       -1.0708429109
 H          2.1294645892        3.2684929947       -0.6931455597
 H          1.0443443474        2.2053231490       -0.5175451604
 O          2.5390169252       -0.5843095161        3.2785053117
 H          2.5267827208        0.3858167102        3.2479533959
 H          1.6159142879       -0.8689157260        3.3809224002
 O          0.5594522863        1.4320612427       -3.2876805104
 H         -0.4060634794        1.5540447510       -3.2999807009
 H          0.8777223859        2.1195671360       -2.6778398469
 O          0.0551786837        3.6347344497        3.1794318735
 H          0.3223952299        4.4220506440        3.6538021086
 H          0.8686594209        3.1114434744        3.0313774772
 O         -4.9027270576        0.2269673704        0.4012280957
 H         -4.7204620940       -0.6506842671        0.7570318220
 H         -4.5685313922        0.8645239019        1.0541856916
 O         -0.8622481652       -2.9624169335        1.3442527441
 H         -0.9183513574       -2.1766122397        0.7224366081
 H         -0.3393662941       -3.6101898335        0.8449565959
 O         -3.4098939484       -2.4200647305       -1.7888443311
 H         -3.6418314527       -1.4729137529       -2.0157653674
 H         -4.1119656719       -2.9517020887       -2.1659169702
 O          3.9797442177       -1.4226360919        1.1949025966
 H          4.7964549578       -1.7695524856        1.5572213707
 H          3.4398366259       -1.1328882619        1.9702541065
 O          4.6236872129        0.8781912410       -0.3151284502
 H          4.2154169091        0.7320958528       -1.1897791248
 H          4.4351560388        0.0822924137        0.2081384500
 O         -0.9290849403       -3.5017850250       -2.5738512347
 H         -1.8063627020       -3.1613369854       -2.3372305425
 H         -0.5327154112       -2.8477953322       -3.1804489104
 O         -0.0970205054       -1.6403794357        3.4841461008
 H         -0.0778567398       -2.2086060943        4.2553514085
 H         -0.3133787239       -2.2223989344        2.7096943296
 O          3.0832080482       -3.2519141295       -0.7666248970
 H          2.2010429258       -3.6027276881       -0.5544176169
 H          3.3238954026       -2.6131815993       -0.0769831053
 O          2.9391869525       -2.2741588466       -3.2174718342
 H          3.5800846714       -2.7437949343       -3.7515386614
 H          3.0023935175       -2.6563689688       -2.3058258241
 O         -4.0483267406        0.0645980952       -2.1935216703
 H         -3.3619888113        0.7272978424       -2.3819636293
 H         -4.4273460801        0.2814013817       -1.3202634942
 O          0.3683673435       -1.5782474119       -4.0657037392
 H          1.2825842489       -1.8444341290       -3.8783234353
 H          0.3558689758       -0.6167189920       -4.0041037183
 O          3.6423877327        3.1981663072        0.4409760931
 H          4.0224691119        2.3209491665        0.1665525569
 H          4.3474856585        3.8348504726        0.3248240066
 O         -2.8255606099       -0.7226458533        3.2185699786
 H         -1.8987086698       -0.9525290209        3.3789896241
 H         -3.1411596626       -1.3121471636        2.5151038059
 O         -2.0835327748        3.7657518523        1.3788857938
 H         -2.6949702666        3.0845637842        1.6942739375
 H         -1.3655424440        3.8132859156        2.0299251560
 O         -1.3422223838        3.8547063904       -1.2420152813
 H         -0.3807870843        3.7355348079       -1.1720551122
 H         -1.6785666194        3.8786800720       -0.3251212576
 O          3.2169676790        0.3834805195       -2.5890909138
 H          2.4166776762        0.7978414069       -2.9300856310
 H          3.1773252738       -0.5463617958       -2.8678342417
 O         -3.5464212139       -2.3563019955        1.0111896008
 H         -2.7306735163       -2.8317223470        1.2335534624
 H         -3.5697047180       -2.3747148889        0.0380074613
 O         -2.1414928390        1.9887071978       -2.8822969244
 H         -2.5653106842        2.4249132686       -3.6225153724
 H         -1.9098160738        2.7161923784       -2.2372169496
 O          2.2648232471        2.1345290457        2.5617076649
 H          1.7430151218        1.6449922812        1.8989552799
 H          2.8825396266        2.6505765789        2.0157766352
 O         -3.6793334488        1.6752324524        2.4362248014
 H         -4.2402950415        2.0248431130        3.1299317124
 H         -3.2882833137        0.8432759146        2.7928131333
 O          0.5402158597       -4.3459848925       -0.5506928225
 H          0.0005564476       -4.0220305337       -1.3211276222
 H          0.6184680295       -5.2926748093       -0.6729331117
 O          0.8062756141       -1.3623238391       -0.8745080855
 H         -0.1004788233       -1.0874875216       -1.0618361630
 H          1.2846400538       -1.3639272266       -1.7065388747
 O          1.0232636131        0.8610446801        0.5777560127
 H          0.1547077186        0.7996192923        1.0119684178
 H          1.1605108440        0.0122136038        0.1126716686
 O         -0.8927030065        0.9398213820        2.4095493291
 H         -0.4867480061        0.2751221190        2.9756521790
 H         -0.8127171634        1.7946174254        2.8439295526
 O         -1.6384589590       -0.2322848748       -0.1872855168
 H         -1.9246914502        0.3499100555       -0.8956195056
 H         -1.8925088547        0.1952373369        0.6380792479
