  252
       -422.41116675
 H         -0.3927329746       -1.0185906846       -1.6380988699
 C         -0.8976267773       -0.1439041147       -1.2231815396
 H         -0.6597103168        0.7407935625       -1.8116584958
 C         -0.4173275789        0.0629743271        0.2117254270
 H         -0.6033171496       -0.8393061123        0.7854206002
 H         -0.9452140387        0.9050800451        0.6536363563
 O         -2.2941186620       -0.2968990379       -1.3043504329
 H         -2.5458350973       -1.0986689756       -0.8132317035
 N          1.0272724261        0.3186042523        0.2007280146
 H          1.5284907097       -0.5472320250       -0.0631082218
 H          1.3799956679        0.6366640248        1.1338881777
 H          1.2374374671        1.0337845518       -0.5316943537
 O         -1.5257525030        2.9001507343       -0.7143106193
 H         -2.0439772129        3.2596761408        0.0227986271
 H         -0.6079514939        2.9534728341       -0.3964614797
 O         -1.3449065906       -0.6253410001       -4.2659498081
 H         -0.4849216675       -0.8351143815       -3.8493407232
 H         -1.3526705340        0.3333909279       -4.4386504607
 O          3.7562905946        1.3353500306       -3.8892003107
 H          3.5660080364        1.1716508769       -2.9370543701
 H          2.9097619478        1.5841510207       -4.2848559880
 O         -5.3528929995       -0.7437047767        4.1604759195
 H         -5.2309985000       -0.9145458373        3.2000219757
 H         -6.2801084864       -0.9038474151        4.3416438321
 O         -4.8911838477       -4.2083085616        1.6490441584
 H         -4.6636477752       -4.0086524186        2.5817969887
 H         -4.1302158369       -4.7179276294        1.3335273793
 O         -0.3949746081        1.1298651820        4.1611758868
 H         -0.3562540739        2.0660517272        3.9341608392
 H          0.2752168948        0.9959491984        4.8725772817
 O         -2.1675697012       -1.4409581887        2.4686580591
 H         -2.4023537790       -0.4995933501        2.5455779412
 H         -1.2253330957       -1.5004784903        2.7218245541
 O         -2.4294175333        3.8939275170        1.7031534282
 H         -1.8331622130        4.5138077172        2.1550686386
 H         -3.1359440254        4.4574438918        1.3517313156
 O          1.4356351816        4.5564020573       -2.6804044423
 H          1.7425526716        4.7251167821       -3.5717437917
 H          0.4464150794        4.5862779927       -2.7193480630
 O         -4.5009295004        3.4741391124       -1.1824022230
 H         -4.3217763032        2.7594307034       -0.5311824739
 H         -5.4812893976        3.4161168983       -1.3179638970
 O          2.1365608721        1.3078211882        2.4628034858
 H          1.5878871862        1.8685006557        3.0175016324
 H          2.7519231336        1.8786838079        1.9766378729
 O         -2.3610710616       -5.0797515727        0.9653779498
 H         -1.8333802750       -4.8014649809        1.7415094828
 H         -1.7347569171       -5.4929555024        0.3575027469
 O         -5.0990282944       -1.4662027073        1.5885918908
 H         -5.0073419762       -2.4377604473        1.5564367867
 H         -4.4846817416       -1.1156811357        0.9349249340
 O          6.8297024458       -1.2166630002        0.8508069742
 H          7.4510612975       -0.7262627434        0.2884266108
 H          6.1038741791       -0.5696574031        1.0552526558
 O          3.0543808710       -3.9030928415        5.0832861562
 H          3.7913346043       -3.4328171710        4.6645136930
 H          2.6438008285       -4.4366175914        4.3808496171
 O         -7.0564946103        2.9260936861       -1.2119601473
 H         -7.1426608564        2.7007841002       -0.2727391093
 H         -7.1625416886        2.0879700718       -1.6969491126
 O         -0.3762440671       -5.3038298364       -0.9896639949
 H         -1.0099619809       -4.9310658758       -1.6281266605
 H          0.4619422275       -5.3796939503       -1.4800317614
 O         -2.8280002001        1.2361018484        2.3383604211
 H         -3.3618503299        1.1604165093        1.5169012891
 H         -2.4664928289        2.1331901360        2.2957089955
 O         -2.4309864364       -0.4690913396        5.1551342034
 H         -1.8421546472        0.2101174616        4.7850809602
 H         -3.3233347191       -0.2845006312        4.8502410038
 O          5.1518731991       -2.1404983555       -1.1894325179
 H          5.5094565632       -1.5998093121       -1.9045689129
 H          5.6956233687       -1.9355340414       -0.4143417758
 O          4.0524209610       -3.5951977416       -3.2292190192
 H          4.5991364473       -4.1646618129       -3.7706321926
 H          4.3718509310       -3.6972846268       -2.3081508314
 O         -3.8657668748       -3.1200556240        3.8748734597
 H         -3.2042446881       -2.5956547462        3.3804415094
 H         -4.4212082373       -2.4590501062        4.3070746286
 O          1.0329882351       -1.6190450582       -3.3300468620
 H          0.7107887614       -2.4965974766       -3.6242907665
 H          1.8029411197       -1.4113646501       -3.9023570650
 O          2.4985196396       -1.5787728574       -1.0808727168
 H          1.9764012798       -1.7326319135       -1.8937534147
 H          3.3323075069       -2.0755880414       -1.1319013514
 O         -2.1093973321       -3.7272626514       -2.3534635058
 H         -2.2032081455       -3.1034377008       -1.6177304582
 H         -3.0116803325       -3.9898431409       -2.5894197435
 O          1.7386816764       -5.0901096109       -2.6926874773
 H          1.1294366993       -4.8474328801       -3.4027289987
 H          2.5201079812       -4.5298600862       -2.8275925141
 O         -7.6758971432       -0.5984981259        1.4240025558
 H         -6.7869959974       -0.9944314540        1.4655523759
 H         -8.0448079689       -0.8814264690        0.5741840245
 O          1.4634888477        1.9311131133       -1.9262937361
 H          1.5053658118        2.8949620801       -2.0322071573
 H          1.2813851224        1.5846146869       -2.8141594865
 O          4.8350498351        2.2453270910        3.3317995539
 H          4.6553605890        1.5637845948        4.0004657048
 H          4.1370025940        2.9173933027        3.4206080480
 O          0.4936346906       -1.1415097666        3.0200847359
 H          0.7307190427       -1.5806467845        3.8681538879
 H          0.2416569734       -0.2371657970        3.2877796306
 O         -1.6302910580        2.1045869351       -4.6786247864
 H         -2.2803377487        2.0104568553       -3.9381078403
 H         -2.1620472370        1.9646993475       -5.4812795499
 O          6.1828349634        2.2208794845       -0.3663623840
 H          6.2703250298        2.9832622075        0.2451765857
 H          5.5636921882        1.6179451217        0.0873423221
 O          3.1320482458        4.4020648983        3.4061985737
 H          3.1734840405        4.9287970188        2.5580770384
 H          3.4065155315        5.0020861061        4.1002032706
 O         -4.4196445065        1.2333418706        0.2404361559
 H         -5.3057562690        1.4395151430        0.6402997568
 H         -4.5517709814        0.4974842854       -0.3797052591
 O          5.2864037042        3.3640902180       -2.7158921708
 H          4.7836604476        2.7178144791       -3.2383558989
 H          5.6678412502        2.8846489996       -1.9594116275
 O         -3.4008875994        1.7054081461       -2.8027261887
 H         -3.0272891128        1.0638345523       -2.1718703463
 H         -3.7157089380        2.4705329204       -2.2728020787
 O          3.7070424464        4.7961925374       -1.1406884933
 H          4.3572976601        4.4238185262       -1.7810807512
 H          2.8706918047        4.8722969818       -1.6263546768
 O          4.2364745609       -4.7453539343       -0.7469653050
 H          3.5109241414       -4.3246156186       -0.2264300705
 H          3.9216015250       -5.6208204311       -0.9750439350
 O          1.1529373776       -2.1142475514        5.4036227400
 H          1.8631875944       -2.7999789836        5.3998457194
 H          0.3284343042       -2.5566682231        5.6447545402
 O          4.2512305156        0.0932417917        4.9613598460
 H          4.7845584736        0.0099228637        5.7530566551
 H          4.3096689238       -0.7566095431        4.5017813186
 O          4.8813707902        0.4754087346        1.2900029848
 H          4.0897772354       -0.0809572628        1.4337042210
 H          4.9142397486        1.1003444747        2.0396262659
 O          1.8375057047       -5.1016040977        2.9279201938
 H          2.1400518258       -4.5699145388        2.1409281267
 H          2.0199376659       -6.0196660244        2.7312712201
 O          1.5963537252        0.5413396183        5.7953333281
 H          1.3911484903       -0.4050939182        5.8887334366
 H          2.4885045643        0.5613143729        5.4216390544
 O         -1.5239744185        6.4489373247       -1.0448222880
 H         -2.3537266484        6.2276389179       -0.5896268136
 H         -1.4876024693        5.8831402854       -1.8268439072
 O         -0.7950956530        5.8228155461        2.7851931134
 H         -0.2746280756        5.9959881752        1.9487054997
 H         -1.1908164013        6.6530928763        3.0469148607
 O         -5.2274031239        0.6643934177       -4.4175303838
 H         -6.0749371232        0.6472157148       -3.9457935141
 H         -4.6172519749        1.1497420065       -3.8148964726
 O         -5.0043690923       -0.9123143569       -1.2860375289
 H         -4.4603432493       -1.1034997367       -2.0770784952
 H         -5.3772981182       -1.7672476614       -0.9952443853
 O          3.8534805827        0.6795768810       -1.3234857608
 H          3.3372064138       -0.1450696609       -1.1937056049
 H          4.7543292712        0.4054234210       -1.5545329528
 O          0.5824353189        3.5775053528        3.3330346982
 H          1.4930249636        3.9024469202        3.4834584384
 H          0.0204227882        4.3684437745        3.3575157078
 O         -2.8509776336       -2.5475155645        0.1230690153
 H         -2.7490217346       -3.5010272964        0.3080869729
 H         -2.5574383455       -2.1303999877        0.9600781719
 O         -7.0645414010        0.4136878065       -2.3595420955
 H         -7.8173774901       -0.1364561055       -2.1183313123
 H         -6.3008591365       -0.0147694048       -1.9116226407
 O          5.6760496940       -3.7960845212        1.5040517620
 H          5.2603325778       -4.1704956383        0.7116682295
 H          6.2760406443       -3.1089721571        1.1931169859
 O          0.5392457687        5.9871144726        0.5552075391
 H          0.6164282486        5.0177671159        0.4102671462
 H         -0.1408694682        6.2879591985       -0.0902103720
 O          3.3371571367       -1.2714684706       -4.6230470811
 H          3.8003724535       -1.9587951478       -4.1219563340
 H          3.6970688020       -0.3972963619       -4.3765665853
 O         -3.5106703004        1.3274599712       -6.4888840227
 H         -4.2126200909        1.0584253508       -5.8722845160
 H         -3.9326558242        1.8417657036       -7.1769635901
 O          7.2811202564       -1.3237551244        3.5432745608
 H          7.2706652076       -1.2706577072        2.5661677972
 H          8.0455406300       -1.8450753614        3.7881883508
 O          4.8277234263       -2.3788709187        3.5972107826
 H          5.7144488202       -1.9837042158        3.7367063516
 H          4.9999578701       -3.0270010610        2.8766721610
 O          2.4690549451       -3.6374298663        0.8571549803
 H          1.5634704339       -3.3884925010        0.5315353035
 H          2.8198442684       -2.7768240380        1.1744066689
 O          3.2918440734        2.6840031909        0.4073153329
 H          3.5511382043        3.4878555802       -0.0929017036
 H          3.4674229564        1.9433801929       -0.2049499975
 O          6.0811265532        4.0469712652        1.5634091968
 H          5.7840200972        3.4572857171        2.2715619505
 H          5.4258735932        4.7435933859        1.4788121863
 O         -3.8930661432        5.6280871686        0.1752266325
 H         -4.6579943422        6.2001604368        0.2293149536
 H         -4.1409581908        4.8776151030       -0.4246542237
 O         -1.4299821367       -2.9579889565        5.1980147681
 H         -2.2160269269       -3.4912140270        5.3459459381
 H         -1.7542631632       -2.0278906856        5.1966689309
 O         -1.1876730005        4.3340173578       -2.8840239337
 H         -1.4091702932        3.7709311809       -2.0965755794
 H         -1.3471880044        3.7783709847       -3.6566944069
 O         -6.0675206743       -3.3362761625       -0.7255186531
 H         -5.7535189501       -3.7656659732        0.0867236851
 H         -5.6282792952       -3.7665820156       -1.4774308638
 O         -0.1612155503       -3.8176541806       -4.2794826136
 H         -0.4442230766       -3.4659452224       -5.1363556969
 H         -0.9315263689       -3.7739668200       -3.6861116971
 O         -4.7482927761       -3.9347338798       -3.0748587543
 H         -4.5134839315       -3.0255237846       -3.3716522852
 H         -5.1341389960       -4.3837962823       -3.8265686706
 O         -8.3141181944       -1.7700699805       -1.0364199721
 H         -9.1187245393       -2.2883732258       -1.0193021103
 H         -7.5718886446       -2.3959384073       -0.9482712185
 O          0.7507317765        3.3222456948        0.6240781336
 H          1.6965983778        3.0836362099        0.4909948738
 H          0.5913756331        3.3193316215        1.5853094579
 O          2.9684201670       -1.2874524382        1.9551537896
 H          3.5448773861       -1.6220471796        2.6633395783
 H          2.0766842775       -1.1546319668        2.3467164138
 O          3.1979712309        5.9004372625        1.2752271884
 H          2.2823799813        6.1695272497        1.0894805621
 H          3.5348365254        5.6118938321        0.4093401249
 O         -3.8678732745       -1.4923331362       -3.6529502031
 H         -2.9316527910       -1.2372362238       -3.7543890113
 H         -4.3889384747       -0.7872629722       -4.0954416653
 O         -5.2023407937        1.9719168115        3.5817732994
 H         -4.3076583852        1.8559526299        3.2161461691
 H         -5.3833423995        1.1403743323        4.0414928158
 O          1.0559211443        1.4548442644       -4.5666469593
 H          1.1372709664        0.7581611246       -5.2537816184
 H          0.1888363642        1.8592383660       -4.7087171863
 O          8.1246425977        0.5467498432       -0.8361853664
 H          7.4882006168        1.2760839861       -0.6066756655
 H          8.9960851691        0.9388269136       -0.8821074940
 O         -6.6983359980        1.8777549104        1.3452287646
 H         -6.3128176308        2.0708144357        2.2259485112
 H         -7.2023871037        1.0397166675        1.4400236651
 O         -0.6843387760       -4.0252536676        2.8113865379
 H          0.1607708997       -4.4749725278        2.9809166631
 H         -0.9565972363       -3.6213354128        3.6597109647
 O         -0.9431595372       -2.1698131970       -6.3625694233
 H         -1.5187251542       -2.0064515784       -7.1091528574
 H         -1.2256008676       -1.5551569247       -5.6410420850
 O          1.3067498693       -0.5058497847       -6.3747715417
 H          0.6293390341       -1.1945951111       -6.4673365387
 H          2.1150866140       -0.9371968788       -6.0715616128
 O         -0.0039085754       -3.0114968765        0.3671045642
 H         -0.2894960420       -3.2072343666        1.2774426053
 H         -0.1967629279       -3.8187459837       -0.1502306560
 O          6.1662415849       -0.0618429946       -2.6641127683
 H          6.9903321032        0.1295712977       -2.1846261875
 H          6.1005439884        0.5487445316       -3.4016346466
