  102
       -167.76708209
 H         -0.0317502387        3.6413310915        1.1961019596
 C         -0.5134537821        2.9034965709        1.8416831108
 H         -0.0583816844        2.9661895925        2.8341229329
 C         -0.2955648539        1.4975893081        1.2894092465
 H         -0.9492972717        0.7912755527        1.7972459913
 H          0.7429023816        1.2158032515        1.4491876822
 O         -1.8776766272        3.2657572371        1.9051071635
 H         -2.3190953995        2.6581741829        2.5310184927
 N         -0.5786723134        1.4277302116       -0.1510882791
 H          0.0769867101        2.0567076819       -0.6625144499
 H         -1.5619601958        1.6952857637       -0.3467735740
 H         -0.4391741799        0.4321078754       -0.4929568077
 O          2.3884671106        1.9931664651        3.0970939543
 H          3.2311092490        1.7609119703        2.6642415491
 H          2.5954531755        2.6635330016        3.7492171294
 O          4.8723195533        1.4431312114        2.0368910124
 H          4.9984339446        0.4845264271        1.8895010699
 H          5.6404679936        1.7503762515        2.5202735609
 O          2.7590780589       -1.8344023835        2.2309349237
 H          2.4546830928       -2.6491546979        1.7924542271
 H          3.7237381201       -1.7918253420        2.1565407688
 O         -1.2649200943       -0.7937941916        3.5485539123
 H         -0.3029678833       -0.5772942110        3.7322202663
 H         -1.5203682885       -1.4415853724        4.2075321339
 O          3.5332904952        2.1292566582       -0.3604536557
 H          4.1107982826        2.2939299996        0.3921904365
 H          3.0283097533        1.3143807451       -0.1062238305
 O         -3.0344467484       -0.8533351345       -3.6638646479
 H         -3.1531380665       -0.9499574939       -4.6091776809
 H         -2.5241802473       -0.0252308436       -3.5300091472
 O         -4.7103677759       -0.8900320347       -1.5085420799
 H         -4.2970227273       -0.8493224946       -2.3842243431
 H         -5.0290369336       -0.0025932876       -1.2857030425
 O          2.2227494120       -0.0456738203        0.2579346973
 H          2.2980323568       -0.6441530543       -0.5064339944
 H          2.3907228250       -0.6018271078        1.0390421361
 O         -1.1495142938        3.9857984420       -2.3613415717
 H         -1.1104535857        4.7433147270       -2.9459290959
 H         -0.2337064435        3.7908533003       -2.0896039170
 O          4.9775028031        0.8533925425       -2.2847383372
 H          4.4858725568        1.4209175817       -1.6567976161
 H          5.2605146871        0.0788591614       -1.7777090336
 O         -2.5376445982       -0.4720795780        0.1924853182
 H         -3.1227515842       -0.7217334138       -0.5375522239
 H         -3.1457444918       -0.3337726843        0.9337358694
 O         -1.5577839605        1.3445100007       -3.3641673647
 H         -0.6227972554        1.0807482353       -3.3343256815
 H         -1.5908430102        2.2675158541       -3.0825996475
 O         -4.6393739866        0.0934026274        1.8933538919
 H         -5.0121275936        0.6601316236        1.1986094715
 H         -4.2277943381        0.6717407602        2.5507858310
 O          1.4243749302       -3.9168395621        1.0319578011
 H          1.2861286769       -4.7412668482        1.4991465196
 H          0.6288409433       -3.3568687240        1.1935384220
 O          1.2475206291       -0.3364191923        3.9724997794
 H          1.5822024319        0.5403274029        3.7108588010
 H          1.7661903248       -0.9684124987        3.4474446123
 O          1.2303699430        2.9160174448       -1.5736784946
 H          1.2772321674        2.1599406153       -2.2017351129
 H          2.0897253021        2.9047444036       -1.1168338903
 O          2.7642614792       -1.7584233003       -1.8133001612
 H          2.1446812184       -2.5306804467       -1.8488923255
 H          2.8617436474       -1.4266396530       -2.7175361646
 O          5.3881544912       -1.2235036057        1.6370029036
 H          6.2255382721       -1.5798148069        1.9367314648
 H          5.3490410673       -1.3675861183        0.6620614413
 O          0.0056034324       -1.0277477088       -0.9749763410
 H         -0.6366451193       -1.5372508667       -1.5166495104
 H         -0.0669536261       -1.4354407744       -0.0900586768
 O         -1.6161358987       -2.7221069501       -2.1830176284
 H         -2.1467175043       -3.0193428484       -1.4205883252
 H         -2.2016749317       -2.1925562198       -2.7492817439
 O         -2.8866842625        1.3665079878        3.6453095122
 H         -3.0650225088        1.5605951346        4.5662222766
 H         -2.2987653602        0.5779836282        3.6229511201
 O          1.0702146304       -3.7670633423       -1.7762877459
 H          1.1208061694       -3.9493840855       -0.8252966236
 H          0.1568079253       -3.5215236042       -1.9801695121
 O          1.0379790016        0.6396184680       -2.9167295331
 H          1.8146824439        0.3510627647       -3.4305451775
 H          0.8781893998       -0.0436263550       -2.2429429665
 O         -2.7712380893       -3.5730811462        0.1622108789
 H         -3.6255298500       -3.1180312022        0.4098886616
 H         -2.9478824473       -4.5121420632        0.2200243441
 O          3.3352071976       -0.2162320528       -4.0207775926
 H          3.9920393683        0.2509933241       -3.4330697003
 H          3.6578819692       -0.1320982362       -4.9176644638
 O         -0.6568741582       -2.3317146280        1.3172624913
 H         -1.4691630571       -2.7005197200        0.9159014291
 H         -0.9477923440       -1.7304599739        2.0233653157
 O         -5.0385616676       -2.4186803344        0.7281656707
 H         -4.9927810459       -1.6784762696        1.3503320704
 H         -5.1792906237       -2.0059095293       -0.1392095981
 O          5.2413610016       -1.6533951201       -0.9811508359
 H          4.2886302336       -1.7593015263       -1.2463765966
 H          5.7225547354       -2.3621929042       -1.4096437200
 O         -5.2810938907        1.5977921161       -0.3779836080
 H         -5.9780341694        2.2319184305       -0.5478428583
 H         -4.4288159689        2.0649750536       -0.4970598993
 O         -2.9162266423        2.8718154254       -0.5401744317
 H         -2.4951177508        3.4405968273       -1.2003202764
 H         -2.6670835991        3.2155103575        0.3426019565
