  99
       -167.94927409
 O          2.7240766512        1.8620898287        2.9213029201
 H          2.2085003618        2.1293642967        2.1389727518
 H          3.6507335773        1.9946744913        2.6765896026
 O          1.6691131885        2.3604098315        0.4182643484
 H          2.5025230418        2.7344139123        0.0722640113
 H          1.7242151261        1.3931560079        0.2368756935
 O          0.4406496663       -3.4979695694        0.5939590309
 H          0.3882238955       -2.7145877832        1.1820498173
 H          1.3222997819       -3.8813502876        0.7647319428
 O          2.0983724655       -0.5022136464        3.8612267274
 H          1.9711467874       -0.3855167179        4.8029721772
 H          2.3589912773        0.3919106574        3.5093433552
 O         -5.1617082826        3.1740109654        0.1246423493
 H         -5.7132461200        3.9204220409        0.3628320798
 H         -5.1652464791        2.5606149543        0.8944130474
 O          3.0461183811       -4.0684886768        0.9810800969
 H          3.3489830535       -3.4082040154        1.6648705196
 H          3.4681045046       -4.8980402865        1.2053781587
 O         -3.9084670937       -2.7208511521        1.9857641745
 H         -4.5922216102       -2.0547380784        1.6749876072
 H         -4.4042126920       -3.4751554232        2.3074091403
 O         -2.4583205472        3.7331764866       -0.3531043916
 H         -3.4048952932        3.6432934296       -0.1742448425
 H         -2.3163445020        3.4050600479       -1.2555920403
 O         -0.9764609771        2.3778607529        1.4505355852
 H         -0.0435533864        2.5528500326        1.2897544598
 H         -1.4650480164        2.9761042552        0.8517945425
 O         -2.1062136423       -1.3042415924        3.3658048640
 H         -2.7763166115       -1.8480317993        2.8954399124
 H         -2.0791663701       -1.6180113136        4.2709555139
 O          3.8729231656       -2.2700534244        2.6803044690
 H          3.2373576148       -1.7788639633        3.2245101447
 H          4.2499343927       -1.6017507839        2.0795942340
 O          0.2858673295       -1.2452433040        2.0366861782
 H         -0.5907030273       -1.1887679519        2.4541413695
 H          0.9260206243       -1.0293841504        2.7458584789
 O          5.4611431770       -1.0343676819       -1.5084502425
 H          6.2805800260       -1.4188387651       -1.8200964147
 H          4.7724908295       -1.7497125761       -1.5625251487
 O          0.8819635663       -2.4061127742       -1.7606031371
 H          0.6665917447       -3.0102178478       -2.4726080427
 H          0.7088799231       -2.8774888231       -0.9020191195
 O          4.4596890342       -0.3313294534        0.8867094653
 H          4.7743634682        0.5362960015        1.1931658971
 H          4.9651929502       -0.5502913374        0.0821177423
 O          5.1578910412        2.2135781252        1.5779077159
 H          6.0023043410        2.6169557642        1.7802046788
 H          4.8162550273        2.6399713653        0.7629805678
 O         -1.7671696753        2.7446156957       -2.8713483083
 H         -1.9119123559        3.4364758908       -3.5174905750
 H         -0.7942334491        2.7778681726       -2.6376836800
 O         -2.2238689717       -3.1926674453       -0.1681334782
 H         -2.8361603338       -3.0878141444        0.5806164174
 H         -1.3977534551       -3.5541602244        0.1830759700
 O         -5.1297853785        1.5625588439        2.2849640039
 H         -5.6903673902        1.8376975064        3.0120440570
 H         -4.1981905614        1.5329408038        2.6571578643
 O          1.7181810413        0.2600561133       -2.6227355736
 H          1.1737909371       -0.3208855084       -3.1792930935
 H          1.7482029535       -0.1363686693       -1.7338503998
 O          3.5953121806       -2.8695616270       -1.4562393552
 H          2.7077346471       -2.5314777549       -1.6582024593
 H          3.5081681470       -3.3266375159       -0.6015526871
 O          1.9208569207       -0.2687425344        0.0496362247
 H          1.3580225283       -0.6746562486        0.7261724960
 H          2.8489514638       -0.3650916425        0.3596194866
 O          4.2743524048        1.2528338495       -2.4781504226
 H          4.7812474200        0.4765327223       -2.1852412704
 H          3.3876655564        0.9208068153       -2.6978901608
 O          4.0290058364        3.1120842437       -0.6850490119
 H          4.1473318445        2.4028056177       -1.3845199538
 H          4.1096481077        3.9499660453       -1.1416492545
 O         -2.4732738589        0.2839861346       -3.6598414037
 H         -3.4217475205        0.2875204098       -3.7991131144
 H         -2.2464114875        1.2045841507       -3.3888447695
 O         -5.5816634367       -0.9202401530        1.1389899723
 H         -5.1854454283       -0.7353121619        0.2700120031
 H         -5.5193102565       -0.0783454954        1.6242456684
 O         -0.1167480915       -1.0997189527       -4.1881855911
 H          0.1588575688       -1.2055198437       -5.0993344188
 H         -0.9387470839       -0.5843172883       -4.2024899604
 O         -4.7784688252        1.9657690642       -2.3263307535
 H         -5.6419698002        1.8448447017       -2.7237612696
 H         -4.9231097529        2.5045092734       -1.5281649419
 O         -2.7297775058        1.4283487484        3.2668099895
 H         -2.0517638664        1.8578430920        2.7103405771
 H         -2.4641728313        0.4989953447        3.3329502764
 O          0.7197171306        2.7186802831       -2.1688613708
 H          0.8792948951        2.7875958451       -1.2127336021
 H          1.1257729779        1.8713887324       -2.4423418528
 O         -3.8414755676       -0.1078813856       -0.7636879287
 H         -3.8484984817        0.6721362453       -1.3401720255
 H         -2.9757708441       -0.5164063397       -0.8382201488
 O         -3.1147810503       -2.6615588314       -2.7210797528
 H         -2.8331798963       -2.9179954155       -1.8271909870
 H         -2.5706269765       -1.9024175822       -2.9543291013
 O         -5.5058361847       -1.2266589629       -2.7797355764
 H         -4.8446073944       -1.9253250705       -2.9148717833
 H         -5.1703399114       -0.7573177178       -2.0046999064
