  534
       -906.58777644
 O         -2.1752170407       -0.8392744657        4.1499000524
 H         -2.0336392057        0.1015483365        3.9051963343
 H         -2.4317335592       -0.8924330449        5.0861245215
 O         -0.0236938804       -3.2426635270       -3.5831345602
 H         -0.9519187126       -2.9547119265       -3.5424467125
 H          0.0275426811       -4.1897584138       -3.8342190735
 O          5.5355781586       -5.7121396765        2.0383054513
 H          4.7889924019       -5.4290901673        1.4781118748
 H          5.1685668273       -5.8526414186        2.9356778284
 O          3.5166020962       -5.0087440423        0.3609952992
 H          3.5791196373       -5.1005557888       -0.6003454763
 H          3.0219770530       -4.1770504892        0.5293556435
 O          5.6526967097        0.0764308477        6.6605024481
 H          5.1496598888       -0.6916446838        6.9658644717
 H          6.5110157028       -0.2472678933        6.3568092138
 O         -3.5203378839       -3.4922507774        4.8069441356
 H         -3.3795181827       -2.9365977003        5.5839504194
 H         -4.0881420258       -2.9726410440        4.2045971780
 O         -1.6909738180        1.8672151856       -3.1671616483
 H         -0.8735856029        1.9406047788       -2.6331218780
 H         -2.3331024874        1.3672766414       -2.6342132411
 O         -0.3502399725       -3.7386089169       -0.8018869011
 H         -0.0638401577       -2.8159422113       -0.8763842444
 H          0.0615095549       -4.0952007460        0.0097971559
 O         -1.1987438238       -3.4803934028        3.3750890501
 H         -0.8841351449       -2.5902219041        3.0266519562
 H         -1.9740095699       -3.3142474208        3.9460665103
 O          0.9156533057        3.9181482067        3.0853475156
 H          1.8285910266        3.8018298387        3.3587837102
 H          0.7852067734        4.8742528943        2.9369290136
 O         -0.8897712911        7.1011743722       -2.3220507401
 H         -1.0248199676        7.1893215655       -3.2689386611
 H         -0.3390360023        6.2933896143       -2.2138143026
 O         -2.2472219890        4.4600258167       -3.0645844534
 H         -1.7131720353        4.9238259919       -3.7210071522
 H         -2.1169154682        3.4974370500       -3.2243654274
 O         -2.1870601027        2.6487041346        0.7349366115
 H         -1.2809214989        2.4037669632        1.0244929746
 H         -2.7798930720        1.9442396438        1.0958187643
 O         -3.9367006743        4.1090724201       -0.7564482666
 H         -3.2750298405        3.5826907392       -0.2839879430
 H         -4.1156892824        3.6352428701       -1.5968834076
 O          0.3279752526       -1.4918422718        5.0214907717
 H          1.0219079408       -1.2605884669        4.3733730780
 H         -0.5269678237       -1.3597079815        4.5739514133
 O         -1.4510693599       -6.6580823228       -0.1026700758
 H         -1.7657270796       -5.9378381417        0.4792818397
 H         -1.5953361421       -6.3278396510       -1.0167254110
 O         -3.5764768919        0.3132051447       -2.0766179780
 H         -3.9362418655       -0.1177200864       -1.2710511955
 H         -3.2520361859       -0.4315220272       -2.6144014840
 O         -4.3065335157       -1.1677626399       -0.0350955584
 H         -3.8432258414       -2.0047428945       -0.2245069877
 H         -5.2514253131       -1.3943566520        0.0045734691
 O          2.9004208131       -4.4929810477       -5.1673534022
 H          3.7949412453       -4.1934323113       -5.4072836116
 H          2.9737595698       -4.7950467053       -4.2441070438
 O          3.9056050917       -0.8702467015       -0.5098717029
 H          4.5185184895       -0.3464041229        0.0300797765
 H          4.3965176032       -1.6762232493       -0.7406140755
 O          0.1353637534       -0.4792208889       -3.3590769158
 H         -0.7408405475       -0.8680783592       -3.4548303233
 H          0.3729955128       -0.6037097784       -2.4255382360
 O         -2.6409267526       -1.6411867051        6.7350502595
 H         -3.4385781365       -1.1521085479        7.0604152286
 H         -1.8877757788       -1.1615494452        7.1054053383
 O          2.5297377929        0.7504683787       -2.1838129835
 H          1.8002521775        1.3364960005       -1.9062182650
 H          2.7795442961        0.1565609284       -1.4567658385
 O         -1.6485186477       -2.3754869830       -5.8315196413
 H         -1.7592260568       -1.4200445818       -5.6817988183
 H         -0.7682755012       -2.5063378285       -6.1888877638
 O         -6.4527309940       -0.1234343736        2.1945807364
 H         -7.0363884283       -0.5612347113        2.8556727532
 H         -6.6167082964       -0.5911996935        1.3601567711
 O          0.7840223935        4.9994612571       -2.5785381485
 H          0.4468560405        5.0161259183       -3.4896618797
 H          1.6587195412        5.4412719881       -2.6120698973
 O          0.8577987401        1.1434486242        3.8533383784
 H          0.6167848199        1.7408921949        4.6022923258
 H          1.6312349834        1.5556544342        3.4336338279
 O         -6.1661138479        6.6103044781       -0.3537000360
 H         -5.2603405156        6.9076683354       -0.4835978955
 H         -6.3199821745        5.9326072138       -1.0279908515
 O          0.7255510488        1.7332360348       -4.6779095459
 H          0.9644061741        1.2829526823       -5.5067713495
 H          0.4696754173        1.0015203695       -4.0746739438
 O          1.4189075677       -2.2418716547       -5.5144509214
 H          2.0002368376       -3.0268503298       -5.5565247663
 H          0.8021170575       -2.4515871140       -4.7728530513
 O         -8.1567562760        1.8902030524        1.8029270114
 H         -7.3757697471        1.3287746695        1.9827634088
 H         -7.9318134428        2.5177140667        1.0965668271
 O        -10.2223113414       -2.5795033697        1.3818512230
 H        -10.5452684868       -2.4146521327        0.4839354799
 H        -10.2343935858       -1.7322740130        1.8582421144
 O         -4.4369824767       -1.7518574489        2.9993492385
 H         -3.5994599918       -1.3201343891        3.2504550715
 H         -5.0835257075       -1.0437079508        2.8273951310
 O          4.5989638672       -0.0829344531        4.1563989306
 H          4.8127347496        0.0342754191        5.1017073893
 H          5.4147897762        0.1150468878        3.6807151919
 O          0.3828686401        2.3378996877        1.0426962533
 H          0.9823662997        1.5700356655        1.1600170631
 H          0.6132271528        2.9843676008        1.7471954893
 O         -0.1833135856        5.8976020255        5.3390502242
 H          0.0843584407        6.2760599212        4.4885755513
 H          0.6237559854        5.5515042016        5.7383276833
 O          7.8142616297       -2.1723208655        1.1626354080
 H          7.9579378625       -2.6921586899        0.3469764519
 H          7.4832294227       -2.8326902229        1.8102858788
 O          3.0658466967        6.4138614734       -2.7524574464
 H          3.6156383643        6.1227586886       -3.4982081331
 H          3.6312542481        6.3053340053       -1.9665996286
 O         -9.0845397094        0.1595863516       -0.0166669511
 H         -9.0891730980        0.7279766171        0.7762389591
 H         -8.4741877843       -0.5854839551        0.1410228749
 O         -1.6860611172        1.6277783853        3.2717959432
 H         -1.8718672844        2.3848319159        3.8361898633
 H         -0.7165812081        1.5046920486        3.2965089993
 O          8.5145579084        0.2074749291       -0.1388109671
 H          8.6762954169       -0.5703797769        0.3986813061
 H          7.7826099253       -0.0260437998       -0.7351537890
 O         -1.7133614182       -5.5276716289       -2.4711405159
 H         -2.5569139713       -5.0763741329       -2.6843557888
 H         -1.0923406560       -4.8326557865       -2.2043813011
 O         -2.6164467563        1.4814459734        6.0646668057
 H         -2.4301778228        2.4244125540        6.0316154643
 H         -1.8014368676        1.0468177246        6.4038121200
 O         -5.5351249292        4.3742080538        2.7045717758
 H         -5.5180890117        4.1355721081        3.6546639133
 H         -4.6116635929        4.6223078972        2.5049065009
 O         -5.7206905758        2.7270232826        0.6453581053
 H         -5.1709957879        3.3101806022        0.0814830607
 H         -5.8330139154        3.2524182201        1.4659464916
 O          0.1984950231        2.7311636136        5.8261013859
 H         -0.5307902253        3.2676821748        5.4885798065
 H          0.9506464339        3.3477774271        5.9243614417
 O        -10.8349655059        2.6188576496       -3.0019139814
 H        -11.2921881002        3.0222933502       -3.7382259843
 H         -9.8669876487        2.7119222188       -3.1792339392
 O         -2.3519956692       -1.9238917781       -3.0245342020
 H         -3.0309728799       -2.0220497648       -3.7174741222
 H         -2.6516281469       -2.5085917282       -2.2973738564
 O         -0.4627502031        0.1746123215        6.9539107900
 H          0.1624281733        0.8930571895        7.0885695510
 H         -0.0296051381       -0.4118064031        6.2947698397
 O         -7.9363246671       -3.7966809604        0.8840781275
 H         -7.4536413773       -3.8364420902        1.7343191209
 H         -8.8307135255       -3.4505232600        1.1058457520
 O         -2.5870336591       -4.8617861868        1.5900494872
 H         -2.9731080347       -5.4583983440        2.2605419319
 H         -2.0634495863       -4.2301375275        2.1233750189
 O          2.3752888579        7.2342489076        0.6334519187
 H          2.0256893251        7.7878177130       -0.1036160769
 H          3.2885554243        7.0287719273        0.4023859486
 O         -4.5981404683       -0.0175974120        7.3646603740
 H         -5.4291202698        0.0100906297        6.8543765818
 H         -4.0775638805        0.7448659747        7.0714457951
 O          0.1771182611       -7.1881958956        2.0355637539
 H          1.0423433622       -7.4680172515        1.6504236568
 H         -0.4762272670       -7.3489041911        1.3389662226
 O          3.0632943847       -5.1975233927       -2.4495617570
 H          2.3590468887       -5.8374206234       -2.2425251237
 H          2.6737618689       -4.3027043239       -2.2806395473
 O          7.4433542163       -0.1967750736       -5.7253706064
 H          6.5340411958       -0.3662642337       -6.0298867997
 H          7.5278692435        0.7619493713       -5.6367219780
 O          2.0337616409        0.2922818779        1.0511840640
 H          2.1644609293       -0.1950117020        1.8888402022
 H          2.8671896221        0.7644858593        0.8538154741
 O          3.7042359650       -1.9038472234        6.4024519490
 H          3.0467871880       -2.5404799026        6.7100491789
 H          3.1883347170       -1.0783347136        6.2503025109
 O          8.6015658865        2.3638168439        1.9171255994
 H          9.3735188643        1.7726545453        1.8296630452
 H          8.0675496048        2.2744989696        1.1015835862
 O          0.9716558625       -6.7822221131       -1.7974334446
 H          0.2355967783       -6.7018806847       -1.1767172214
 H          0.6032096035       -6.5953864603       -2.6766731340
 O         -6.5431579731        4.6206424961       -2.3812795534
 H         -6.0324267249        3.7921180090       -2.3409506244
 H         -5.9656778626        5.2024607666       -2.9240188559
 O         -4.7631212250        2.6042341830       -2.7591400279
 H         -4.4910170477        1.6964129876       -2.5308458682
 H         -4.3601861987        2.8008490507       -3.6246702753
 O          4.2060021917        2.4697814891        6.3053121855
 H          4.6841338451        2.8112638528        5.5247535262
 H          4.8111190073        1.8492242782        6.7282551615
 O          7.2956715766        4.7108583190        2.7943788484
 H          7.0750120315        4.9829213056        1.8821438593
 H          7.9391118547        3.9984509298        2.6755140110
 O          2.3497013986       -1.1856197391        3.2776618413
 H          2.4197747170       -2.1603569245        3.1716329089
 H          3.1633846443       -0.8864945655        3.7150038353
 O          4.1759848112        1.8310158641        0.4093769003
 H          3.8283241130        2.3714367065       -0.3345941261
 H          4.0524960552        2.3875929542        1.1966742189
 O         -3.7215925875        3.0202557580       -5.2212474093
 H         -4.0921008707        2.1409520493       -5.5028835041
 H         -4.2309656311        3.6985367334       -5.6647541791
 O         -3.9833157813        0.9568145333        1.5479416135
 H         -4.7284474626        1.5203979675        1.2382264073
 H         -4.0746050965        0.1134661594        1.0679932779
 O          4.4258401362       -1.8520531192       -3.2562953076
 H          5.1403328897       -1.4411077778       -2.7411574706
 H          3.9775485555       -1.1357841759       -3.7613221409
 O         -1.9475254019       -6.4954736111       -5.1577667070
 H         -2.1785750497       -6.5060217535       -4.2207892503
 H         -2.5174184537       -5.8214131666       -5.5595934655
 O         -0.4981789344        5.6073295775       -4.9098019093
 H          0.3489977408        5.8958865986       -5.2824649546
 H         -0.7326486159        4.8021477009       -5.4329392670
 O        -10.8755551612       -2.4674762752       -1.3222354609
 H        -10.8325168390       -1.5749444193       -1.7175687776
 H        -11.6892960230       -2.8713103095       -1.6209375573
 O          2.3647843985       -7.4782758954        0.6075090664
 H          2.0384887879       -7.5453477244       -0.2971295635
 H          2.8162200068       -6.6152078955        0.6564881785
 O         -1.1123848647        4.7226155372       -0.6558162148
 H         -1.3847518304        3.9252799427       -0.1838147526
 H         -1.5271041213        4.6743976075       -1.5458564981
 O         -4.9860777066        3.5891456657        5.1715866160
 H         -4.8653152187        2.6707734484        4.8390787000
 H         -4.0971731415        3.9304411039        5.3297457225
 O         -3.4156230384        6.7877172444       -1.1646908930
 H         -2.5384080124        6.9242875947       -1.5622456672
 H         -3.5070735207        5.8273023144       -1.0066442416
 O          3.6978872080        4.2979511633        1.6236230987
 H          2.7776218786        4.2799851257        1.3162754351
 H          4.1580527273        4.8642926484        0.9791502197
 O          7.3577286473       -4.0096433233       -3.7594500035
 H          7.8285811410       -3.1581269310       -3.7463117241
 H          6.7196184553       -3.9118144594       -4.4862821574
 O          4.6181406257        2.3539907798       -5.2493269297
 H          4.7188115995        1.7141604381       -4.5200775090
 H          4.0855212418        1.9313202329       -5.9591710109
 O          4.9439338899       -2.7616530736        2.1992890196
 H          4.8700017676       -1.8169394015        1.9886341010
 H          4.0568899605       -3.1431045360        2.3453049516
 O          4.7427726465       -5.5802618646        4.5985682622
 H          3.8126030738       -5.6618505920        4.8488245727
 H          5.0168421500       -4.6821836666        4.8386783186
 O          2.1383521091       -2.7860155319       -2.1014178635
 H          1.3472463598       -2.7828643418       -2.6714244985
 H          2.8803290074       -2.3349394635       -2.5411024972
 O         -4.1886385639       -6.0809705850       -0.5221237871
 H         -3.4250907058       -6.6608138035       -0.4315640723
 H         -4.6877005722       -6.1613797878        0.3140169822
 O          9.5791551291       -1.5639157376        3.1383090590
 H         10.0550208315       -2.3979643759        3.2259653820
 H          8.9643264587       -1.7094405673        2.3909107695
 O         -3.8942030262       -4.2298720775       -3.2089741911
 H         -4.7408307481       -3.9885219260       -2.8066604432
 H         -3.9974517793       -4.3409886219       -4.1675231717
 O         -1.8597987071        0.3331983928       -5.5112638266
 H         -1.7623066872        0.8623544272       -4.6968026665
 H         -2.7430177543        0.5084267866       -5.8511078855
 O         -5.5126108427       -6.1820400030        1.8799376375
 H         -4.9688427981       -6.3798085623        2.6502403866
 H         -5.5679015389       -5.2038912219        1.8290871569
 O         -2.9721511328       -3.3958034636       -0.8045493984
 H         -2.0217854537       -3.6180651304       -0.7010257952
 H         -3.4582104397       -4.2316517983       -0.8579131147
 O          1.3224046325       -3.3229775606        6.7006960290
 H          0.9848195974       -2.6452964713        6.0785873844
 H          0.5155789676       -3.6668463834        7.1233497962
 O         -6.3676938024       -0.7858902190       -2.4998368337
 H         -6.4265683269        0.1248306623       -2.1513107740
 H         -7.1561845967       -0.8865949878       -3.0772250506
 O          7.6315959876       -1.0437757314        5.0050060854
 H          8.4147883902       -1.3170660045        4.4974981942
 H          6.9647303743       -1.7566746319        4.9082122596
 O          2.2389712378       -2.6498392925        0.5517796454
 H          2.8454781097       -1.8915220425        0.4798176588
 H          1.9726036381       -2.7812049676       -0.3740984045
 O          6.5623625086       -0.8990126761       -1.7696315618
 H          6.3878113891       -1.6949473380       -1.2311458272
 H          7.2377433575       -1.1452344748       -2.4412518636
 O         -8.9809462296        3.7106811595        3.5448125178
 H         -8.6124868889        3.0175717439        2.9533860872
 H         -8.7728261981        4.5517054824        3.1251371696
 O         -5.0060640567       -3.6547843938        1.1495389737
 H         -4.9783674781       -2.9742689908        1.8429745043
 H         -4.0994340088       -4.0105296707        1.1160883018
 O          7.0288762313        5.0113049877        0.1185574226
 H          6.8521556840        4.0520041753       -0.0168951707
 H          7.9510673130        5.1280916984       -0.1524768120
 O          5.5338034498       -3.0108775083       -0.4865756713
 H          5.4161393764       -3.1917042198        0.4602208825
 H          5.5992059535       -3.8664870329       -0.9572978043
 O         10.0405036975       -4.2828219512        2.7329942513
 H          9.0594108479       -4.3152086260        2.7934281127
 H         10.3511409880       -5.1739671914        2.8896729914
 O         10.3043341035        0.1414754384       -2.5672525483
 H         10.7940459632        0.9672495269       -2.5615444457
 H         10.5258847045       -0.2939611195       -1.7181550351
 O          0.6337759490        0.0394090468       -6.7908592935
 H         -0.3016146318        0.1599379364       -6.5668550448
 H          0.8876499611       -0.8335716576       -6.4510815455
 O          2.9315362211       -0.2048249341       -4.6241693517
 H          2.5698865239        0.2228867580       -3.8211749866
 H          2.2805172966       -0.8802955939       -4.9086321144
 O         -4.6132405954       -1.5123399467       -4.3553521623
 H         -5.1175155191       -2.1655371765       -4.8748103110
 H         -5.1938672853       -1.2692402602       -3.6005460564
 O          6.7670426645        2.3734710994       -0.1285616565
 H          5.8598134430        2.0469266387        0.0460000234
 H          7.0566853005        2.0181780324       -0.9811011045
 O          8.2965291650       -3.8374097725       -0.8942906828
 H          8.1124956096       -3.9004435796       -1.8372113395
 H          8.0037023700       -4.7016728447       -0.5074869532
 O         -7.3815196695       -5.0320214401       -4.3365739271
 H         -7.9559644189       -4.5005679780       -3.7615264120
 H         -6.9349528067       -5.6507531729       -3.7381629739
 O         -6.0442473464       -3.7664310883       -1.4794572466
 H         -5.7208800973       -3.7513054835       -0.5631465428
 H         -6.1857230471       -4.7127336877       -1.6929268765
 O         -4.5430582141        5.9143763508       -3.5573786555
 H         -4.3331281371        6.5542685462       -2.8597548419
 H         -3.8131909492        5.2712816631       -3.5083955103
 O          5.7912557862       -0.3429453113        1.3082025033
 H          6.5236227595       -0.9573098378        1.1265869004
 H          6.1688296005        0.3583356703        1.8550464295
 O        -11.0750181174        2.0669842533        2.4672742843
 H        -10.5364230371        2.7196068054        2.9385088911
 H        -10.9817330687        2.2697016515        1.5196752899
 O        -10.3323868386       -0.3630787475        3.0418323432
 H        -10.5373479616        0.5799186396        2.7804084894
 H        -11.0492026667       -0.6166746241        3.6234633875
 O         -7.6986073106       -6.4182862561        0.1420670915
 H         -7.0368482976       -6.6355499187        0.8111175145
 H         -7.9135670875       -5.4814510398        0.3091165937
 O          3.0138446983        1.4712030392       -7.2050690470
 H          2.5418694242        2.3015506895       -7.4195658761
 H          2.3011227143        0.8201556347       -7.1415309956
 O         -7.9733123639       -1.3184301839        3.9797696513
 H         -7.6166365568       -0.7713882927        4.7173589883
 H         -8.8461534317       -0.9601856747        3.7327941971
 O          2.6288000343       -3.7825714762        3.0278700481
 H          1.9867897797       -4.0567023312        2.3449344114
 H          2.4596950567       -4.3585411494        3.8042213042
 O         -6.0829733237       -3.2686634272       -5.7715065699
 H         -6.5338953122       -3.9727340479       -5.2326398739
 H         -6.7681311007       -2.8632166966       -6.3023220118
 O          3.2063394109        3.5204780139       -1.3521192187
 H          2.9770912341        3.5010952805       -2.3005678805
 H          2.4702229867        3.9535095871       -0.8726125754
 O         -8.5166032626       -3.3373169236       -2.5083822945
 H         -9.2544222502       -3.2327588541       -1.8903628687
 H         -7.6871383555       -3.4000438956       -1.9927063316
 O         -7.1517469090        1.4600571164       -1.3289541458
 H         -7.9227083957        1.0546152526       -0.8734113807
 H         -6.6696499449        1.9645506454       -0.6521186697
 O         -4.5260241962        1.1532438708        4.1775989237
 H         -3.7266644927        1.0913394630        4.7263292264
 H         -4.2603386125        1.0866296448        3.2382581195
 O          1.9856222994       -5.3042530300        5.0970838399
 H          1.1377809872       -5.7561190984        4.9692722989
 H          1.8083250704       -4.6068138312        5.7742279266
 O          0.4513340943       -5.7414822519       -4.3420693299
 H          1.1479270531       -5.6578813560       -4.9988607305
 H         -0.3623274748       -6.0779147445       -4.7824649063
 O          0.5510328171        6.5613615205        2.6890727884
 H         -0.2467620950        6.7283899273        2.1624771169
 H          1.2914548525        6.9288896876        2.1868157459
 O          2.3915116382        0.3920414615        6.0511899364
 H          1.9008477230        0.4930264721        5.2194144067
 H          2.9426178137        1.1839714141        6.1553620926
 O          0.4723219130        2.4196485386       -1.6494523304
 H          0.6315964550        3.3220643551       -1.9851155063
 H          0.4492252048        2.4888718666       -0.6736841900
 O          5.0722429596        1.2959558053       -2.8095872229
 H          5.6306550889        0.6465944654       -2.3616739828
 H          4.1593470702        1.1766350953       -2.4801797144
 O          5.5205356485        3.1957134171        4.0526713487
 H          6.0817423789        3.8910641714        3.6463396030
 H          6.0210876910        2.3740611475        3.8964834058
 O          1.3972398906        3.6164891366       -7.4515625368
 H          0.4885699871        3.4121417427       -7.2008489402
 H          1.6618899784        4.3727002814       -6.9007485664
 O          5.6841570133        3.9871214061       -2.5250066518
 H          5.5008752632        3.0341284891       -2.5987218051
 H          6.6447270784        4.1108490087       -2.6228729918
 O         -8.5839267508       -1.0716930819       -3.9281380732
 H         -8.6300447046       -1.9957279930       -3.6094760086
 H         -9.2835837159       -0.6043220027       -3.4270623548
 O          4.7760030868        5.2904929547       -4.6338486831
 H          4.7712029641        4.5980401060       -5.2992257759
 H          5.1339172618        4.8512674930       -3.8228854359
 O          1.4812602161        8.3699005720       -1.5890253712
 H          2.0375280730        7.8430072716       -2.1840321542
 H          0.5639473825        8.1117297516       -1.7734604869
 O         -2.8761449781        4.6409086567        2.4122889947
 H         -2.4632137817        5.4395973822        2.0302395261
 H         -2.5987323161        3.8851299417        1.8514169513
 O         -7.6604804561        5.7191275065        1.7637263387
 H         -6.8909866505        5.3006775459        2.1982145449
 H         -7.2621415281        6.3266867563        1.1205285004
 O         -2.1245030068        4.0971672147        4.9105082676
 H         -1.5425928132        4.8446036110        5.1650998296
 H         -2.4131075772        4.3307542925        3.9999572187
 O         11.3121346372       -0.9677431379       -0.2917038869
 H         12.2561639705       -0.9967303875       -0.4466659077
 H         11.0484103220       -1.9127227922       -0.0964852073
 O         10.6990022533        0.6168794124        1.8553869437
 H         10.4056813217       -0.0258943837        2.5202497458
 H         10.9000237450        0.0770216866        1.0682403354
 O          1.4460839477        4.7845639950        0.1955592220
 H          1.7090400711        5.7186239603        0.3233181034
 H          0.5448965401        4.7949637699       -0.1641965657
 O         -1.2317659252       -4.1082757133        7.1186783072
 H         -1.7889135899       -3.3218623578        7.0285642164
 H         -1.4306314677       -4.6909224477        6.3821224896
 O          6.9568844265        0.9921496861        3.3846453606
 H          7.6643198987        1.5054691512        2.9198079637
 H          7.3791376037        0.3776545511        4.0153324296
 O         -7.3244858936        0.9988022263       -5.3630016320
 H         -7.6164084791        1.7018626563       -4.7585006616
 H         -7.7672041659        0.1986007733       -5.0498410049
 O          7.3866701458       -4.0951341365        2.9434930025
 H          6.7207007858       -4.7095502380        2.5428535459
 H          7.0179691592       -3.8555598114        3.8002005387
 O         -0.6676510782       -5.9799119705        4.3864621541
 H         -0.3771048481       -6.5251916988        3.6368799499
 H         -0.7455537495       -5.0670447371        4.0550137538
 O         10.7172617975       -3.4372516014        0.1906720119
 H          9.9026780119       -3.6503810033       -0.3060869923
 H         10.5494013918       -3.7204132653        1.1060276257
 O          4.5436160265        5.7064690704       -0.5511799940
 H          4.3244438101        4.8509361908       -0.9882652787
 H          5.5111368066        5.6844425129       -0.4556387211
 O        -10.5807052478        2.6620419111       -0.1602388402
 H         -9.7381292047        3.1489761610       -0.1503096548
 H        -10.8992270684        2.7017944724       -1.0672798533
 O         -7.6349537081        2.7786413782        5.7719044668
 H         -6.8081363639        3.2756995260        5.7403429140
 H         -8.1991883730        3.1366544125        5.0634146970
 O          3.6291099065        5.5361492257        3.9693167631
 H          4.5301950870        5.7144751721        4.2365773858
 H          3.6889743321        5.0873335591        3.0957885568
 O          7.3518747869       -6.1232148983        0.0217256854
 H          6.7966380909       -6.1285683550        0.8173129360
 H          6.7293895191       -6.1691634907       -0.7192715744
 O         -4.6961080339        0.6856415378       -5.8281634657
 H         -5.6605016306        0.8517540608       -5.8036225736
 H         -4.5936504416       -0.1237572477       -5.2730434580
 O         -6.6641070528        0.3084929066        5.5860843118
 H         -7.1320156126        1.1593870784        5.7466029524
 H         -5.9554781992        0.5361589657        4.9535446833
 O         -7.0212985582       -1.5372102654       -0.0331963967
 H         -6.8490665170       -1.5016274175       -0.9988886931
 H         -7.2917260644       -2.4569933066        0.2157389858
 O         -8.1547741090        3.8969989255       -0.1054469093
 H         -8.0784123707        4.6089535639        0.5703297689
 H         -7.7046004376        4.2192438991       -0.8945937162
 O         -3.4247487332       -6.0581904687        3.8479376071
 H         -3.6238114592       -5.2179083581        4.2961905065
 H         -2.5529307808       -6.3233473803        4.1827051577
 O         -1.0611260370        3.2723844891       -5.9621711395
 H         -1.9889693947        3.1008782789       -5.7316405537
 H         -0.5172017445        2.6812061625       -5.3983526908
 O          5.2877317705       -3.2036450555       -5.3719599869
 H          4.9958594014       -2.7513059692       -4.5454811123
 H          5.3106336412       -2.5066435589       -6.0379817929
 O          3.2764744248        2.0551887391        3.1216927617
 H          3.6630674583        1.2279033909        3.4596133190
 H          3.9314201538        2.7305321513        3.3652743583
 O          2.2568739149        4.4359944376        5.9943635402
 H          2.7093109410        4.8876630664        5.2510821220
 H          2.9223552444        3.8446891068        6.3709840218
 O          9.6791265416        4.7837258728       -0.5882861183
 H          9.8973224349        3.8217793974       -0.5534040964
 H         10.3674069176        5.2432927610       -0.1096591198
 O         -3.5409653650       -4.3414374166       -5.8956209738
 H         -2.9041617271       -3.6058698589       -5.9420523740
 H         -4.3983710100       -3.9968937319       -6.1780792708
 O          2.5620676146        3.4705700135       -3.9668368632
 H          1.8517942358        2.8182053894       -4.1561738350
 H          3.3642238691        3.1219535637       -4.4030103474
 O          4.8512303834       -0.6126842328       -6.5046796823
 H          4.5894167766       -0.0896794483       -7.2665938973
 H          4.1725832750       -0.4200251025       -5.8322166666
 O         10.3383345349        2.1927495584       -0.5623249516
 H         10.8584614287        2.0297951217        0.2288589320
 H          9.6045670246        1.5453047715       -0.5091198632
 O         -6.3296569372       -6.3474400376       -2.1386367169
 H         -5.4428949821       -6.4853617976       -1.7645480470
 H         -6.9543585492       -6.5349898192       -1.4025874345
 O         -6.8291373128       -3.7050133514        3.3599522831
 H         -7.1557225127       -4.3542621998        3.9813811882
 H         -7.2094375400       -2.8468704894        3.6265738807
 O          5.7175005299       -5.2230597248       -1.9732729726
 H          4.8250732768       -5.3340233602       -2.3374785111
 H          6.2870723867       -4.8854648450       -2.6883838751
 O          0.5584658103       -4.6205355610        1.5548570969
 H         -0.0298614548       -4.1825840080        2.1822189825
 H          0.4608240693       -5.5886372400        1.7061073870
 O          2.0997084926        5.5188436450       -5.5915019462
 H          2.9204253639        6.0106671387       -5.6557099655
 H          2.2777573893        4.8000872522       -4.9315809142
 O          8.3363181605       -1.4897846352       -3.6279613810
 H          9.1819079446       -1.0813296860       -3.4054277701
 H          8.0222229858       -1.0469336652       -4.4551035491
 O          7.9053040380        1.5110235192       -2.5540042456
 H          7.5937075398        1.5997866845       -3.4710300779
 H          8.7036566567        0.9576979987       -2.5690827715
 O         -1.6827883561        6.6461929734        1.0780632775
 H         -1.3957823741        6.0161891415        0.3778143995
 H         -2.3271718843        7.2183835402        0.6494362252
 O         -8.2101349757        2.7398819464       -3.4034411470
 H         -7.8455842968        2.2133913790       -2.6525064904
 H         -7.8086008883        3.6151074086       -3.2811120460
 O          8.3622892918        4.1396929491       -2.9394939059
 H          8.4158396874        3.2051796679       -2.6578303763
 H          8.8634652018        4.6382894985       -2.2845660102
 O          7.3168578113        2.4758271085       -5.0514433469
 H          7.6658675380        3.3196000455       -4.7459134959
 H          6.3597063711        2.5905010224       -5.2022009949
 O        -10.4439351772        0.0175104485       -2.2996618961
 H        -10.7816280521        0.8827237637       -2.5842045819
 H        -10.0131867179        0.1871164881       -1.4366021981
 O          5.6286623651       -2.8754882468        4.7784431309
 H          4.9154209129       -2.5211768585        5.3500129855
 H          5.3254604779       -2.7589682050        3.8482890582
 O          0.4088630440       -1.0254383028       -0.8089555892
 H          1.0978048022       -0.6581930747       -0.2294602382
 H         -0.4218783033       -0.6085343253       -0.5060596978
 O         -0.2737182180       -1.6877949203        1.8439497949
 H          0.5228974253       -2.0318506814        1.4117812899
 H         -0.9733581897       -1.6115433037        1.1900248465
 O         -1.6180844157        0.0882108199        0.3420950053
 H         -1.3481050898        0.3395145474        1.2338972037
 H         -1.8730638450        0.8835385142       -0.1327201549
