  84
       -142.51608792
 O         -1.8999513198        1.8479948742        3.2062213221
 H         -1.7030003016        2.0366284122        2.2740156573
 H         -2.5646904182        1.1524965308        3.2007497508
 O          2.7348056362       -1.0222420132        2.7620241811
 H          3.4211723778       -0.3856177401        2.5123366505
 H          2.0636984225       -0.4994815193        3.2218810974
 O          4.3719114958        0.9955233895        1.6958696780
 H          4.6378736117        0.4532818886        0.9138539294
 H          5.1533139549        1.4630669227        1.9913297944
 O          2.6948825394        4.4483981764       -2.1715847254
 H          3.2734599823        3.6894079612       -2.0726292869
 H          2.3559417652        4.6415757827       -1.2731310746
 O         -1.8191157308        1.6826787446       -3.5087115576
 H         -2.4725461116        2.2157929741       -3.0351583041
 H         -1.0090666100        2.2119732006       -3.5130377584
 O         -0.8781805059       -1.1847048501        2.1183697351
 H         -0.6559594442       -0.9956623080        1.1805191254
 H         -1.8218714811       -0.9485933817        2.2309097602
 O          0.5455458400        0.6695296443        3.3798582780
 H         -0.1729797697        1.2604604910        3.6661505722
 H          0.0536277889       -0.0708154447        2.9493560454
 O         -3.4753575130       -0.4661054586        2.0991144420
 H         -3.5885866501        0.1757704848        1.3733043891
 H         -3.7922578661       -1.3098591776        1.7435090398
 O         -1.4009775403       -0.9720075293       -3.0216031719
 H         -1.4802860766       -0.0491079386       -3.3300872548
 H         -2.2758082741       -1.1896174342       -2.6708701793
 O         -0.8924410112        2.0578309990        0.5882195189
 H          0.0107809208        2.0776585085        0.9279788149
 H         -0.9900243371        2.8924292874        0.0603786265
 O          1.8261354939        2.0176726231        1.4933847368
 H          2.7693386516        1.8035755147        1.5898372316
 H          1.3882301230        1.5551200240        2.2534016430
 O          1.5271403749        4.5886073967        0.2874305771
 H          1.6261136135        3.7776457444        0.8067625921
 H          0.5934897275        4.6693341670        0.0579357405
 O          0.8550045318       -3.1666978743        2.9228689549
 H          0.1353756325       -2.5341610703        2.7613652821
 H          1.6507786315       -2.6323013381        3.0168142325
 O         -1.4397979803       -3.2687661581       -0.2148294010
 H         -0.8697451321       -3.9326245941        0.2662436100
 H         -0.9773974965       -2.4194177379       -0.1439086161
 O         -3.8706272814       -2.7619755263        0.5586484140
 H         -2.9281853928       -3.0158592169        0.3499169785
 H         -4.3376352481       -3.5825555027        0.7164331792
 O         -3.5426101876        3.2024611973       -1.8062980934
 H         -4.4242314966        3.5634655239       -1.8948170713
 H         -3.5927840178        2.4743555335       -1.1468784676
 O          5.0931425683       -0.6654445680       -0.2506498138
 H          4.6141670381       -1.4788922604        0.0507919842
 H          6.0123040393       -0.9199844319       -0.3392553538
 O         -0.0931800550       -3.4438071811       -2.6049068024
 H         -0.3400473492       -2.5975103035       -3.0032240637
 H         -0.7388468120       -3.5737489536       -1.8869436919
 O         -3.8410828772       -1.1652104111       -1.6255447038
 H         -3.9056264994       -1.7790196893       -0.8633725247
 H         -4.6849801010       -1.1855274145       -2.0774418427
 O         -1.0790909849        4.1759402334       -0.9361351285
 H         -0.5289141438        3.8852525740       -1.7057413797
 H         -1.9940614476        4.1228601923       -1.2481583284
 O          0.4486722260        3.1622435783       -2.8551939110
 H          0.8282765545        2.4168445862       -2.3547203927
 H          1.1938063165        3.7953902770       -2.8992875636
 O          3.7942027394       -2.7617486748        0.7055860484
 H          3.1575036787       -3.1979970468        0.1211927975
 H          3.2990820066       -2.3809790061        1.4433914758
 O          0.3002417769       -4.8464141036        0.9004557087
 H          1.0260786403       -4.6969690009        0.2733751127
 H          0.5483620593       -4.3752878995        1.7221986023
 O          2.0453647203       -4.0647205907       -1.1354739047
 H          2.5249761813       -4.7668410167       -1.5765099198
 H          1.3101856141       -3.8137740299       -1.7485224068
 O         -3.3460734102        1.0848477688       -0.1609636263
 H         -3.3728744273        0.3311023593       -0.7807125029
 H         -2.4138330261        1.2771054301        0.0339951227
 O         -0.3185741336       -0.7329146785       -0.5399306659
 H          0.3584031909       -0.0473773193       -0.6466793608
 H         -0.7094521204       -0.8126564470       -1.4344940642
 O          1.5014681612        1.3075581836       -1.1324115521
 H          2.4023468600        1.3251066608       -1.4918416699
 H          1.5931479912        1.6082355596       -0.2090714820
 O          4.0683156477        1.5275825613       -2.0376404754
 H          4.1722976699        1.3708977952       -2.9782418722
 H          4.4689242880        0.7837736480       -1.5651371611
