  93
       -152.47751838
 H         -3.0344783935       -0.7644864132       -2.0099637611
 C         -2.0409531519       -0.3012557991       -2.0528754193
 H         -2.1316455650        0.6710973713       -2.5424623309
 C         -1.0929134675       -1.2203922303       -2.8276611958
 H         -1.5236482539       -1.4265179383       -3.8151242442
 H         -1.0228731929       -2.1630719346       -2.2821372297
 N          0.2318058725       -0.6210341850       -2.9293386438
 H          0.9120515486       -1.2715853368       -2.5517298523
 C          0.6299200744       -0.1917185330       -4.2530461249
 H          0.3807351852       -0.9145654274       -5.0466896426
 H          1.7124230235       -0.0484330363       -4.2460312381
 C         -0.0545136424        1.1442078974       -4.5671553219
 H         -1.1298012957        0.9888486173       -4.7213266379
 H          0.3607042858        1.5947517511       -5.4714351449
 O          0.1444240956        2.0587434991       -3.5110558207
 H         -0.0045598745        1.5584821426       -2.6835526542
 O         -1.5654015160       -0.0429621396       -0.7490349114
 H         -1.5474016977       -0.9042146447       -0.2635086759
 O          2.6241668084        0.2247091269        3.6401757908
 H          2.1912883896        1.0834845056        3.7518013303
 H          3.1253364683        0.2867842247        2.8219544383
 O          4.8422581781        0.5951991375        0.1174190684
 H          4.2692196942        1.2190855217        0.5922611937
 H          4.4049986006        0.4915208221       -0.7541332222
 O         -0.7446206196        2.3008641671        1.8734244939
 H         -1.6253711824        2.6533865358        2.0770708427
 H         -0.5944212192        2.4332701102        0.9050788754
 O         -4.3550043750       -2.0855598047        0.8172672954
 H         -4.1815459272       -1.9481746788        1.7554796949
 H         -4.7064854261       -1.2432725707        0.4877421348
 O         -3.3467473546        2.9947282874        2.2803347728
 H         -3.8213222143        3.7743100515        2.5674649870
 H         -3.9126592725        2.2133495208        2.5409670798
 O          1.1655374412        0.3626009051       -0.1773708203
 H          0.2359778603        0.3711067329       -0.4630979910
 H          1.3165872207       -0.5088498913        0.2501495505
 O          2.7584937120        2.0819402535        1.0918424589
 H          2.3637407536        2.3779143961        1.9269568260
 H          2.0987058509        1.4847233439        0.6712106228
 O         -5.3019918682        0.4345402370        0.1028095827
 H         -4.5534148952        1.0455664485       -0.1446257255
 H         -6.0166469841        0.6097505820       -0.5083661265
 O          4.0081670741       -2.4636293778       -1.9410704293
 H          4.3298335162       -2.4461384546       -1.0277015756
 H          3.8053942284       -1.5390391397       -2.1480836612
 O          1.3783501232        2.7121865514        3.3882677007
 H          1.3130533192        3.5742776272        3.7977601575
 H          0.5433839645        2.5670305973        2.8826188332
 O         -1.7894812052       -2.6016880635        0.1587021702
 H         -1.5045446015       -2.8429657059        1.0638650469
 H         -2.7624727003       -2.5310168289        0.2335298314
 O         -0.4793760462       -4.7637115038       -0.8767622484
 H         -0.3792687934       -5.2873226774       -0.0801335210
 H         -1.0208168778       -3.9913845863       -0.6108203777
 O          1.8455247889       -2.0148027405        0.8106657604
 H          2.8169993138       -2.0468156844        0.8496529293
 H          1.5943258175       -2.4310746088       -0.0511817625
 O         -3.2865437112       -1.1972037188        3.3844761253
 H         -3.0469937437       -1.0910326256        4.3058812342
 H         -2.5185580793       -0.8285315438        2.8461501380
 O          1.3974343158       -2.9460091285       -1.5963743021
 H          2.3267600864       -3.0885436589       -1.8611400705
 H          0.9184316978       -3.7886376748       -1.5303311182
 O          3.1849185976        0.2590741306       -1.9873828861
 H          3.1545872443        1.0956132344       -2.4722088045
 H          2.3830865219        0.2600821746       -1.4189622073
 O         -0.3772163885        2.7374468380       -0.7183574962
 H         -1.0350827987        3.2684141337       -1.1679747513
 H          0.4866809909        3.2182863639       -0.7812893867
 O          4.5715506119       -1.9212133110        0.7829118012
 H          5.2393078121       -2.1866660912        1.4141850713
 H          4.7360738534       -0.9601119607        0.5772929843
 O          2.7170875324        2.7202812072       -3.2057705926
 H          1.7653874551        2.5177745219       -3.3755003997
 H          3.0358999760        3.2328621771       -3.9484186806
 O         -1.2547076671       -0.3425183290        2.0663392428
 H         -0.4809711609       -0.7872580402        2.4726061889
 H         -1.0335351545        0.6031718972        1.9888829835
 O         -4.8913489590        0.9451096711        2.7740569133
 H         -4.3897146364        0.1538015615        3.0477935321
 H         -5.2128249994        0.7436017914        1.8780358604
 O         -3.2876525641        2.0548937232       -0.3273012924
 H         -3.2337739998        2.4745083423        0.5468499594
 H         -2.5568988671        1.4088143138       -0.3702702462
 O          2.0003214048        3.8928230646       -0.7908584338
 H          2.3874839194        3.5723218736       -1.6208546953
 H          2.4222687617        3.3618617820       -0.0871888015
 O         -1.4099003258       -3.3847011808        2.7358840783
 H         -2.1746852564       -2.9015750142        3.0714780170
 H         -0.6249077507       -2.9378360242        3.0838813993
 O          0.7515108563       -1.6964094218        3.2077678205
 H          1.1503967924       -1.9739825199        2.3579007344
 H          1.4024254974       -1.0718903291        3.5788706668
