  117
       -193.41843853
 H         -6.2199047187        0.7090071871       -0.2959695026
 C         -5.4825895771       -0.0996285480       -0.1373448530
 H         -6.0230816874       -0.8857538014        0.4139508229
 C         -4.3412623429        0.3912897134        0.6617898346
 H         -4.5082208469        0.5619901788        1.7089970051
 H         -3.3533993101        0.1027486842        0.3528769894
 O         -5.1296200214       -0.6630454511       -1.3800840396
 H         -4.4412199032       -0.0957919047       -1.7983463151
 N         -0.8772102167        1.8083366363       -0.4821926186
 H         -1.7152924731        1.8819274375       -1.0464530565
 H         -0.0934470441        1.7062909590       -1.1141764007
 H         -0.7570324821        2.6883560043       -0.0009066517
 O         -0.5252510727       -4.3450609274        1.4717431190
 H         -1.1667380423       -3.6152550007        1.4897885088
 H         -0.1599079936       -4.3288431125        0.5742389808
 O         -1.9211024498       -0.3124642186        4.7116859228
 H         -1.7625704047        0.5975027364        4.4201745985
 H         -1.0759669564       -0.7662495583        4.5466000993
 O         -2.3890694616        4.0539372308        1.8555510868
 H         -2.9046979963        4.6188521018        2.4314729897
 H         -3.0287971553        3.6790545421        1.1899703613
 O         -0.8130785851       -0.0820388379        1.4145357856
 H         -0.8570504565        0.5302549642        0.6325703253
 H         -1.4461357886       -0.8223422941        1.2657726789
 O          3.0049536787       -0.2346681740        3.3211726599
 H          3.3184565795        0.6997649825        3.3340196309
 H          3.6610670402       -0.7517881154        3.7868709122
 O         -2.3055522353       -2.2449405029        1.2185546231
 H         -2.7341944040       -2.4715730785        0.3733292236
 H         -2.9879938451       -2.0607944173        1.8950807752
 O         -1.3373107081       -1.0114401340       -1.2253112810
 H         -1.9533177274       -0.2959885316       -1.4137347057
 H         -0.4602217023       -0.7130931781       -1.5299767773
 O          0.4932260954       -1.1460693097        3.6498397686
 H          0.0860618594       -0.8272717241        2.8315988716
 H          1.3875041966       -0.7515758819        3.6495613515
 O         -4.0908074543        3.0607597208        0.1562339568
 H         -3.9367881481        3.2676760716       -0.7803332390
 H         -4.1620696862        2.0688130572        0.2479162016
 O          0.9047802491       -0.1391642993       -2.5198096844
 H          1.4431597904        0.6567445158       -2.3412209297
 H          1.5407832813       -0.8834756993       -2.5149314604
 O         -0.0367460010        4.6760805837        0.7100846220
 H          0.2624683551        5.5553601120        0.9440938092
 H         -0.9127903396        4.5472260792        1.1329610080
 O          2.2859358729        2.0407764356       -1.7533714080
 H          2.3376388669        1.6752281270       -0.8320734871
 H          3.2138489106        2.1501950157       -2.0095782860
 O          1.2372498195        2.6591165063        2.1861493500
 H          0.4701867174        2.3606393169        2.7169401408
 H          0.9147614398        3.3779835868        1.6233476999
 O          3.1649491405       -2.7525601884        1.4286444032
 H          2.4532701263       -2.2109563595        1.0186283553
 H          2.6838603709       -3.1951746136        2.1765574040
 O          5.0726274909       -0.7473031738       -1.6237116434
 H          4.8992269784       -0.7205541860       -0.6301628569
 H          5.8579145630       -1.2820199360       -1.7409801445
 O          3.8143994471        2.3051338623        3.1650386941
 H          2.9529869581        2.6390006231        2.8749745277
 H          4.4116474097        2.3864210538        2.4012843613
 O          1.4723186730       -3.6957437599        3.1855706471
 H          1.0986900768       -2.8589973344        3.5155964298
 H          0.7650047901       -4.0705270257        2.6193138528
 O          5.4386834196        2.1612159732        0.8989106325
 H          5.5146287647        1.2083638464        1.0323608874
 H          5.1927087278        2.2755182717       -0.0290775785
 O         -1.3514193444        3.2989238913       -3.7190329631
 H         -1.1448061581        2.3963236927       -3.9878988537
 H         -0.6025098182        3.6283444132       -3.1761117889
 O         -3.7074487594       -2.9620704799       -1.0643615277
 H         -4.3055941482       -3.6834573260       -0.8693708025
 H         -4.2543487992       -2.1659297575       -1.2224822922
 O          0.5919093125        4.1335775853       -2.0575369307
 H          1.2809536528        3.4452075978       -1.9899125802
 H          0.3735591645        4.3826190343       -1.1506071718
 O         -3.1438341547        0.9108530709       -2.3118001072
 H         -3.5083297725        1.7935511206       -2.4845035942
 H         -2.5378524026        0.7175482263       -3.0642895663
 O          1.1500566826       -1.5265661665        0.1771753331
 H          0.3561030665       -1.2379768638        0.6555997847
 H          0.8847639803       -2.3315658500       -0.3217413089
 O         -1.9355375574       -2.3052979909       -3.4476667320
 H         -2.6226621961       -2.9586073318       -3.3094352466
 H         -1.7490355201       -1.9552636713       -2.5383254363
 O         -1.2377535514        0.3295685382       -4.0942079410
 H         -0.3997862552        0.1942405366       -3.6040441086
 H         -1.5455321031       -0.5683807147       -4.2823784720
 O         -1.1655960338        1.8990858114        3.1708337912
 H         -1.6832050630        2.5944544727        2.7397228282
 H         -1.1238927370        1.1446545595        2.5416927163
 O          3.3875658454       -4.1907305831       -0.7410070062
 H          3.8017527224       -5.0339083893       -0.5628188910
 H          3.3876306674       -3.6852651058        0.1194968408
 O         -3.8421780095       -1.5035617658        3.2948408511
 H         -3.1482045874       -1.0201716451        3.8114540254
 H         -4.1128282454       -2.2253658172        3.8631888081
 O          5.0082985404        1.9263915939       -1.9452448806
 H          5.0481658330        0.9460909276       -1.8935723941
 H          5.6887617366        2.2060651234       -2.5570368026
 O          2.3948996971        0.8453465448        0.5612201280
 H          1.8838392721        0.0271062161        0.4301191817
 H          1.9524375886        1.3730482469        1.2552584246
 O          0.4837399606       -3.5478877586       -3.6234931133
 H          1.1918773453       -2.8980708977       -3.6785998557
 H         -0.3641468458       -3.0701026858       -3.7056964499
 O          4.6591937949       -0.5693258859        0.9195191897
 H          4.3140386345       -1.4128192562        1.2703009580
 H          3.8738908967        0.0213627745        0.9396991509
 O          0.6819551354       -3.8927663224       -0.9829804350
 H          0.5002559169       -3.8663673664       -1.9475053306
 H          1.5989937537       -4.2048105759       -0.9031566851
 O         -3.6517750617        3.5608961623       -2.5338841698
 H         -2.7570341580        3.5652459214       -2.9760573222
 H         -4.2084674645        4.1427997792       -3.0504639541
 O          2.8164844289       -2.0412113921       -2.5619150032
 H          2.8972389091       -2.8340200387       -2.0131443887
 H          3.5981585532       -1.5094142154       -2.3353811462
