  114
       -193.39703690
 O          2.6771341098        0.2998095563        0.0570728024
 H          2.7869432697        1.2711695750        0.0708400318
 H          2.6538403195       -0.0137693902       -0.8775975137
 O          5.7180190602        2.1633719419        0.0388582562
 H          4.8465467015        2.5534710999        0.2624842127
 H          6.3686530244        2.8601816843        0.1287747182
 O          0.3345903240       -2.3838493830       -3.5570233958
 H          0.9709618996       -2.7015443223       -4.1974259716
 H          0.3951154225       -1.4088383473       -3.5599145529
 O         -3.7442868003        0.7466939741        3.8087551459
 H         -4.6173833335        0.8043018258        3.3931131369
 H         -3.2076971302        1.4479636549        3.4082310568
 O          3.2003829121        2.9261892869        0.5013084253
 H          2.5799297290        3.4088024653       -0.0696113462
 H          2.8261209921        2.9421825211        1.4019672418
 O         -4.8543273889       -1.8354681936       -0.3193097864
 H         -5.2852832077       -2.0450880698        0.5245236984
 H         -4.1089068089       -2.4539846951       -0.3902629587
 O          0.4009524864       -2.8177809091       -0.8466827775
 H          0.3349526737       -2.8255531660       -1.8182688023
 H          1.2980139763       -3.1066195850       -0.6454339073
 O          0.2482201003        1.9059856191        0.7511703703
 H          0.7050526163        2.1368260328        1.5705537690
 H          0.5297494804        2.5653375394        0.0869454432
 O          5.8239420999       -2.2591167242       -0.5485647783
 H          5.5888713121       -1.5374709248        0.0934320003
 H          6.6137223420       -2.6822472963       -0.2109014877
 O         -6.1290723223        0.5049840677        2.3508097920
 H         -6.0506695185       -0.4758269017        2.3337462194
 H         -7.0237450601        0.7084362596        2.6256649330
 O         -2.6310063508       -3.5168852780       -0.2568112383
 H         -2.1134218916       -2.9091716483        0.3108803223
 H         -2.4555867694       -4.4053779116        0.0518893712
 O          2.2635428225        2.1551799877       -3.2433727835
 H          2.4333256114        2.6857848448       -4.0228595316
 H          3.1505993086        1.8668311799       -2.9172157616
 O          1.8274591948        0.1919182433        3.7778656292
 H          1.0214482340        0.3278968456        4.3020983985
 H          1.5115627234       -0.3296017359        3.0053806509
 O         -2.3413103396       -2.3674061250       -2.7639599940
 H         -2.3745514747       -2.9822248145       -2.0163962832
 H         -1.5020861304       -2.5112719845       -3.2165525802
 O          3.1911440201       -3.1268205889       -0.4836677453
 H          3.0925740761       -3.2368030602        0.4786695908
 H          4.1443568864       -3.0098961231       -0.6181368111
 O         -5.6722750040       -2.1464060386        2.2994052969
 H         -6.2034441366       -2.8021056382        2.7518218107
 H         -4.7816101102       -2.1380367793        2.7596101267
 O          0.2253682978        0.3545875658       -3.3843284772
 H         -0.5635569693        0.8877994243       -3.6138822619
 H          0.9970358027        0.9500328060       -3.3995348424
 O         -2.0477216300        2.6530659913        2.6636918054
 H         -2.3053100076        2.7093744420        1.7209427564
 H         -1.9277885341        3.5526083747        2.9704872299
 O         -1.9382106883        1.9071251991       -3.7395490204
 H         -2.1419622829        2.2115971602       -4.6247227422
 H         -2.8115437026        1.6010840071       -3.3637415277
 O          1.1673807770        3.5656491720       -1.1667512258
 H          1.5265493553        3.0955768798       -1.9406660688
 H          0.2572551628        3.8356419962       -1.4249866982
 O         -4.2678128988        1.2323927107       -2.8192770273
 H         -4.5736463376        1.3231926984       -1.9099140255
 H         -4.5220277210        0.3138728749       -3.0770140309
 O         -4.8747975964        0.8642299214       -0.0685421600
 H         -5.4265220608        0.8998965323        0.7306876024
 H         -4.8148791001       -0.0900757104       -0.2826877354
 O         -3.1757087285        2.8975112210        0.2009268196
 H         -3.7597643244        3.6575581798        0.1601288690
 H         -3.7537517073        2.1088880914        0.0883681341
 O         -4.8438383993       -1.3349156792       -3.1206445756
 H         -5.1591311638       -1.5828083818       -2.2424135301
 H         -3.9669362825       -1.7457064024       -3.1986473060
 O          4.1555480556       -1.3465524399        3.4417059188
 H          3.4702101396       -0.7406928385        3.7638098719
 H          4.6142262753       -0.8923140065        2.7153612657
 O         -0.7297946298        0.8226259091        4.3892328197
 H         -1.5143899887        0.4664444280        4.8109380445
 H         -1.0478564093        1.4637938348        3.7379169004
 O          5.3008800148       -1.1594737902       -2.9636825169
 H          5.5630639520       -1.5904939687       -2.1244437486
 H          5.8836964261       -1.4914894377       -3.6467950022
 O          2.6100654516       -1.0360296212       -2.1953696103
 H          3.4324794247       -0.9636135184       -2.6956514021
 H          2.7039657248       -1.8527208495       -1.6736339404
 O         -3.3565103113       -1.9178101677        3.4668628713
 H         -2.6374814675       -1.9512386040        2.8172620329
 H         -3.4295526376       -0.9798640462        3.7343785847
 O          2.8396856418       -3.2348769894        2.2226035042
 H          3.4090158194       -2.5850970207        2.7269546503
 H          2.7317697638       -4.0001224462        2.7869139491
 O          1.9172595619        2.6501639055        2.8639362841
 H          1.9799730465        1.7278294633        3.2304893357
 H          1.8634307165        3.2376984000        3.6173098588
 O          1.1337534435       -1.2346909715        1.6212519978
 H          1.6902776237       -0.6928210704        1.0253900944
 H          1.6314544269       -2.0544629548        1.7932609779
 O          4.6913837430        1.4873210831       -2.4600931433
 H          5.1138377219        1.7152767602       -1.6166364070
 H          4.9928343737        0.5959155743       -2.6914382252
 O         -1.3881500146        3.7781944709       -1.8041535316
 H         -1.9434258635        3.4662365439       -1.0751850966
 H         -1.5691562676        3.1824405925       -2.5524257097
 O          5.0563471032       -0.3038725919        1.0403069913
 H          5.5284860463        0.5150225070        0.8233826709
 H          4.1365085212       -0.1484630664        0.7109744671
 O         -1.5941247230       -1.5440309068        1.1746189165
 H         -0.6381631504       -1.4523215805        1.3301275589
 H         -1.7028843449       -0.9639506476        0.3816064043
 O         -1.2486274941        0.1414812442       -0.8635316844
 H         -0.7109410103        0.7408565800       -0.3270238309
 H         -0.6958481655       -0.1245512457       -1.6089201189
 O         -0.3671652550       -4.2220353095        1.4838610093
 H         -0.1162998923       -3.7585529368        0.6648065742
 H         -0.7426427855       -3.5389421945        2.0444487581
