  384
       -651.78685283
 O          3.0340970175       -2.1158544768       -2.2786178982
 H          3.8018133306       -1.6529573646       -2.6219835707
 H          2.8133763078       -2.8016080290       -2.9344639412
 O          2.1862719311       -5.9741367273        1.1035850278
 H          2.0552215232       -5.8729498561        2.0532272860
 H          2.4808915506       -5.0912666877        0.7915988422
 O         -0.4365821257       -5.5665758661        0.6406380445
 H         -0.2312781819       -4.6276893259        0.8935719556
 H          0.4229971590       -6.0037875068        0.7804634645
 O         -3.1799078826        0.6156251814        1.5968794670
 H         -3.5988065505       -0.0345793109        2.1915225538
 H         -3.4025303609        0.3582913215        0.6798316678
 O         -2.6340700070        5.7429021637        0.9054740799
 H         -2.4161328987        4.8204285660        0.6578838125
 H         -1.8409718137        6.1156654301        1.3051927517
 O         -0.0357863040        3.6950513407       -1.6499563818
 H         -0.9391237293        3.5658933612       -1.2990581550
 H         -0.0601704171        3.5612851527       -2.6121739959
 O         -3.8459136536       -2.1791625473        1.0633289774
 H         -3.9426788818       -3.1389726524        1.2061071326
 H         -3.7470024066       -2.0831383490        0.0997070616
 O         -1.6473734818       -4.2171385830       -3.2859078703
 H         -1.4042921131       -5.0470592666       -2.8267232404
 H         -2.5140886498       -4.3706475045       -3.6886584799
 O          2.3399736557       -0.5433887938       -4.5300662578
 H          3.1464148997       -1.0767676376       -4.6404835149
 H          1.6481546745       -1.1206440425       -4.1611900459
 O          1.1788182088        0.0317825527        3.2070155415
 H          1.1042003384       -0.6304192912        3.9302107088
 H          0.5477845853        0.7343934287        3.4607137567
 O         -2.1978185093       -1.1734739624       -2.7412686483
 H         -2.3522975902       -0.2208430949       -2.7286021635
 H         -2.8868351794       -1.5806366988       -2.1847663965
 O         -4.0417322855       -4.8785250649        1.0124873331
 H         -4.9265533574       -4.9248623496        1.3969672553
 H         -4.1068779078       -5.1600455971        0.0832416029
 O         -1.6414612160       -3.2610719535       -0.7106055061
 H         -1.7796259585       -3.4746771902       -1.6506192189
 H         -2.0962976430       -3.9270334591       -0.1927217078
 O         -0.4316460663        3.7570112827        2.2669978142
 H         -0.3160672642        4.7092741282        2.0654450695
 H          0.1602341604        3.3011098720        1.6527665325
 O         -4.8237004124        2.9557705884       -0.8632764175
 H         -5.0775507193        2.4662422886       -1.6642477632
 H         -5.2531468344        2.5240505562       -0.0996440084
 O          0.9051406292       -3.8734753357       -1.5509312848
 H          1.6579045352       -3.6570124170       -0.9543836476
 H          0.1001139466       -3.7074375678       -1.0327061916
 O          1.2381226617       -1.5928241021        5.2944070501
 H          1.8520845683       -2.3058485766        5.0226169270
 H          1.7760516323       -0.9505258342        5.7950329101
 O         -0.0543482333        1.0350175786       -3.1106290622
 H         -0.9135198657        1.3382513940       -2.7703394965
 H         -0.1751680328        0.9129316657       -4.0695966103
 O          3.4826848669        1.2767306416        3.5592669314
 H          2.6247257603        0.8305062871        3.3439235577
 H          3.7343521751        1.7833942849        2.7605173441
 O          2.0942506348        5.0217455020       -4.4884469886
 H          1.2226616362        4.5995531027       -4.5363315681
 H          2.7364309745        4.3722716677       -4.8176237042
 O          3.0747051859       -3.4108444075        4.5785557963
 H          3.5469883952       -3.6307625335        3.7605792663
 H          3.7332302527       -2.9838127164        5.1669327823
 O         -4.2287315834       -2.6161509586       -1.6150436913
 H         -4.0558459658       -3.5564142446       -1.7577340619
 H         -5.1590832316       -2.5663816407       -1.3435441131
 O          0.4505738501       -3.3063510338        1.5978763330
 H          0.7877443244       -3.8119096061        2.3634373059
 H         -0.2505530304       -2.7240568345        1.9287924343
 O         -2.6573111977        1.6660988254       -2.9117953701
 H         -2.9536735818        1.5652394799       -3.8393713533
 H         -2.6488498960        2.6385035399       -2.7864230987
 O         -2.6273461931        4.2793129650       -3.2312190019
 H         -3.4595765144        4.2951574404       -3.7472243467
 H         -2.6172351294        5.0766692066       -2.6585502417
 O         -6.6168146647        3.1218484539        3.4017491716
 H         -6.3030579402        4.0081974180        3.1947956300
 H         -6.2778305516        2.5710576820        2.6553334491
 O          1.0458193677       -4.9456910401        3.6347636789
 H          0.2086488285       -4.8382207706        4.1074724135
 H          1.7399490191       -4.5453535792        4.1795950645
 O         -1.3031434055       -2.1374097459        6.1166602707
 H         -1.4755747453       -2.9362272105        5.5924320523
 H         -0.3504614208       -1.9726563813        6.0009634712
 O         -3.0407647958        3.0383653665        2.6897347985
 H         -2.1673514608        3.4392481247        2.5619488518
 H         -2.9638024968        2.1462272661        2.3024340919
 O          4.8466575223       -5.6038265624       -0.0701511774
 H          4.4502444684       -6.4336961234        0.2026738411
 H          4.5132742306       -5.4344270532       -0.9749841168
 O         -6.2445055975       -3.9646820440        2.2778322205
 H         -7.0806003465       -3.5770539646        2.5715176390
 H         -5.6077324417       -3.7743959437        2.9921389578
 O          3.6117171212        3.2715164483       -1.2116451208
 H          3.3044412589        2.6265909489       -1.8705138146
 H          3.2912259273        4.1565767006       -1.5060944352
 O          0.0677887689        6.2680932512        1.4402119133
 H          0.9988968525        6.1588204919        1.6865180192
 H          0.0878390072        6.3650471971        0.4578063948
 O         -5.2950824369        5.5927677553       -1.3439474994
 H         -4.4487470954        6.0146328496       -1.5276901048
 H         -5.1053871646        4.6663617390       -1.0955460552
 O         10.5325767331       -1.9271617307       -1.9032522546
 H         11.1448093043       -2.4340051390       -2.4360580120
 H          9.7267887493       -2.4788150350       -1.7954825436
 O         -2.2676479329        3.3341707908       -0.2236006888
 H         -3.1979478200        3.2001956395       -0.4943150394
 H         -1.9091503627        2.4526319168       -0.0162328819
 O          4.9382251654        5.1387365100        0.6818101772
 H          4.9715927362        5.4150978183       -0.2507707318
 H          5.8655129680        5.0934519448        0.9584660553
 O          7.4775665515        4.3145256889        1.1351755615
 H          8.2460028747        3.8075863344        0.8281997906
 H          7.3934237882        4.1164473380        2.0822910581
 O          1.5321223118        3.0421895517        0.4300471927
 H          0.9238394208        3.2631918143       -0.3012527485
 H          2.3999828569        2.9806126494       -0.0207260485
 O          3.8613595438       -5.5105084713       -2.5920491758
 H          3.1169650718       -6.0964773897       -2.3612247279
 H          3.4626200543       -4.8921758096       -3.2306576231
 O          3.3748472626        0.5538921425        0.0639822116
 H          3.6388405148        1.3609541492        0.5411546739
 H          4.0665209716        0.4113189354       -0.6124638645
 O         -0.7275304112        1.0447803482       -5.7355874422
 H         -1.6698947990        1.2458051774       -5.8380410739
 H         -0.6358554988        0.0883358103       -5.9586721427
 O         -3.4223184527        1.6752249475       -5.5080053523
 H         -3.8736807547        2.5313582072       -5.5156716697
 H         -4.1137885732        1.0013718666       -5.5795727776
 O         -5.1875540040        0.3573492341        6.5291574580
 H         -5.2703158974        0.7652646020        7.3902006000
 H         -4.8315953692        1.0546626230        5.9271660215
 O         -2.5469886287        6.4315794053       -1.6603282560
 H         -1.6348146031        6.7295631734       -1.7715780588
 H         -2.6232060402        6.2537619995       -0.6935431008
 O         -4.3246234925       -3.3133548034        4.1357751561
 H         -3.4361304422       -3.7146278682        4.1318936541
 H         -4.4527175207       -3.0401732429        5.0723911126
 O          2.8028562673        0.4560341025        6.1629709177
 H          2.2902615193        1.2391351291        6.4018910717
 H          3.1924431725        0.6815943843        5.3066792758
 O          0.3056355943       -1.9875762095       -3.4020351779
 H          0.5594355704       -2.7787300610       -2.8853610870
 H         -0.5624070841       -1.7154767957       -3.0607143804
 O          5.9144212654       -3.5561001286       -2.8874651366
 H          5.6208280410       -3.1430922066       -2.0416242205
 H          5.4749119147       -4.4130095980       -2.9183699887
 O         -2.1289865950       -0.1448853793        4.5407257477
 H         -1.8250348208       -0.7583843076        5.2426665235
 H         -1.5675972974        0.6439976091        4.5538449692
 O          4.4783820412        2.5467472548        1.4611973103
 H          4.5896429541        3.4642093142        1.1532667679
 H          5.3300582757        2.0896542821        1.3191822712
 O          2.4893421037        5.0988597483        1.8798331910
 H          3.3630356047        5.2665270617        1.4911744760
 H          2.1327882038        4.3188936977        1.3962064432
 O          6.2292379084        2.8145490200       -0.9935343887
 H          6.6370815073        3.3979365238       -0.3403106958
 H          5.2927254564        3.0920477254       -1.0876294815
 O          2.0243505701        1.4161873606       -6.4168720945
 H          2.1525810922        0.6085693141       -5.8903681393
 H          1.0701492894        1.5239187906       -6.4805226616
 O          4.7562219127        3.3577822948        4.8692014973
 H          4.0809771291        4.0491203087        4.7912982583
 H          4.3346591952        2.5618397784        4.5107851231
 O         -3.7827252736        0.1802199448       -0.9500301683
 H         -4.7074962529       -0.1000043315       -1.1155930788
 H         -3.6071434794        0.8929970113       -1.5849484397
 O          2.5325370050        1.5734954389       -2.9757973545
 H          1.5753689161        1.7441082149       -2.9550333539
 H          2.6023971509        0.7385403875       -3.4944057557
 O          2.6335891622       -3.8010950066       -4.3293335420
 H          3.1775586518       -3.4672029716       -5.0455432398
 H          1.7528108718       -4.0477408606       -4.7041558962
 O          5.2417556460       -2.2546544390       -0.6822106944
 H          5.3401403488       -1.3500138029       -1.0217117947
 H          5.6137727381       -2.2242489141        0.2164954889
 O          5.3616066800        0.2877365283       -1.6683336616
 H          5.3480544097        0.4338000193       -2.6378259904
 H          5.8734922723        1.0260813144       -1.3016136700
 O         -0.3616647994        1.9361996993        4.2695522892
 H          0.2142115852        2.2640731298        4.9793973669
 H         -0.4485399064        2.6585816966        3.6228083889
 O          5.8911944436        4.3620985221       -3.9846614912
 H          6.6242874093        3.7366978373       -3.9342372496
 H          5.1593811274        3.9065493896       -4.4246392325
 O         -6.9092267725       -0.4229137925        4.5179214679
 H         -6.0500751393       -0.4766622092        4.0348917127
 H         -6.6421075521       -0.2128707875        5.4226490674
 O          9.0752282224        0.4395708705       -1.7705472560
 H          9.7895421304       -0.1551088907       -2.0279991703
 H          8.5202845054       -0.1026539126       -1.1677875480
 O          0.2243204062        6.3097557646       -1.2207804974
 H          1.1504561593        6.4445632063       -1.4689930715
 H          0.0911981698        5.3506545227       -1.3973834787
 O          2.7560314458        5.6515801443       -2.0228068610
 H          2.4895884734        5.4782401983       -2.9599314204
 H          3.6325585356        6.0584035894       -2.0633152294
 O         -4.1787446439       -4.5103152357       -4.4114908220
 H         -4.9933095357       -4.3830602763       -3.8584426458
 H         -4.4438508375       -5.0282812588       -5.1709376980
 O         -3.8626700336       -5.4471346472       -1.6194428526
 H         -3.0315766205       -5.9431128514       -1.7170840944
 H         -4.5276271436       -5.8698790527       -2.1649362722
 O         -7.3862479892        3.8093879031        0.5574941057
 H         -6.4798278280        4.0846189956        0.8156894135
 H         -7.9723669511        4.2231143210        1.1912710377
 O          5.4609071548        5.9299868078       -1.9008533777
 H          5.6216319336        5.3065591139       -2.6512161556
 H          6.1034670781        6.6314867024       -2.0002393204
 O          8.2589396441       -3.2997837102       -1.5172521976
 H          8.1049165149       -4.0608148663       -0.8993509222
 H          7.5832711804       -3.4005821136       -2.2089413458
 O          3.7508285168        2.8328179709       -4.9599324399
 H          3.2405619258        2.4464835401       -5.7005928199
 H          3.3062209316        2.4713383523       -4.1587882558
 O          7.7849829823       -1.1450928958       -0.0066063533
 H          7.8530332136       -1.9518233281       -0.5599646552
 H          8.1914314848       -1.3804763144        0.8488491187
 O          7.8784003350        1.1880932729        3.5840827505
 H          8.8107879098        1.1130198017        3.3277770944
 H          7.7029474734        2.1378224235        3.7300774126
 O          7.4643761008       -4.0714985398        2.6016099821
 H          8.3232760579       -3.7563793007        2.8865794874
 H          6.9686908425       -3.2651069333        2.3325403987
 O          7.5819395127        2.2212104674       -3.2264818749
 H          7.1379089901        2.5139095271       -2.4021494306
 H          8.2616646221        1.5999027510       -2.9190417236
 O          5.5803434256        0.8259977605       -4.2751526275
 H          6.4131550266        1.3028887713       -4.0617572580
 H          4.9883866773        1.4873431840       -4.6712110891
 O         -1.2809841859       -6.3766581966       -1.7420709628
 H         -1.0232816624       -6.0617962272       -0.8416724359
 H         -0.4927835809       -6.8419658675       -2.0501794099
 O         -6.3874013304       -4.2375935566       -3.0060770212
 H         -6.7516252538       -3.3981794443       -3.3489038560
 H         -6.4761941765       -4.1501998583       -2.0429610339
 O         -1.6300401268       -1.9099266419        2.5746807383
 H         -2.4130371619       -1.9384812895        1.9903698596
 H         -1.7854056786       -1.1959798574        3.2282023349
 O         -1.6533052974       -4.0663320208        4.1663845782
 H         -1.8366471871       -4.8947618881        3.6553300735
 H         -1.5669078949       -3.3389469499        3.5124749800
 O         -8.7532915231       -1.5236562138       -0.1350097947
 H         -9.4476175366       -1.7196332728        0.5030776712
 H         -8.4511893855       -0.6264628611        0.0987749034
 O         -5.2245947532       -0.3393279126       -4.8875346072
 H         -5.9961223376       -0.8516353578       -4.5888477944
 H         -4.5009047972       -0.9916099733       -5.0035483788
 O         -8.6286066182        3.8743918431       -1.8945541069
 H         -8.1095640264        4.3852450203       -2.5392399440
 H         -8.1611442046        3.9766033455       -1.0475113147
 O          0.2265035055       -4.2792080495       -5.3198880460
 H          0.0124695353       -3.5303802703       -5.8912073736
 H         -0.4071390818       -4.2423979245       -4.5782781891
 O          2.5146548780        4.8953090392        4.4896937075
 H          2.3282144808        5.7931992227        4.7637504850
 H          2.4821582941        4.9027183277        3.4955056549
 O         11.2767278787       -1.2456701620        0.6798886155
 H         11.0378999310       -2.0471822359        1.1485729040
 H         11.0594323460       -1.4017529712       -0.2555244200
 O         -3.1752972105       -2.0414782134       -5.0450128200
 H         -2.7838746830       -1.7806264255       -4.1787451970
 H         -3.5390375880       -2.9322293421       -4.9097120599
 O         -6.2826471404       -0.9509217360        1.3227323445
 H         -5.4315916620       -1.4192051642        1.4212641941
 H         -6.9488557332       -1.4201264127        1.8595237619
 O         -7.9856291412        1.3639546774       -2.3158469785
 H         -8.7042684231        0.7486118622       -2.5431429598
 H         -8.3622791067        2.2648138896       -2.1841963873
 O         -5.6432473952        1.6533307246        1.3916929275
 H         -6.0475510281        0.7630986958        1.3720953521
 H         -4.7109772366        1.4880531146        1.6207344917
 O         -2.1852644863       -6.1018061726        2.6130221227
 H         -1.4707729238       -6.0795535507        1.9481021661
 H         -2.9696823343       -5.7896732308        2.1364571348
 O         -8.5686268679        1.2243859507        3.1981587312
 H         -8.1615485911        2.0817880934        3.3919742720
 H         -8.0088460203        0.5909595749        3.6967833283
 O        -10.3758299767       -0.6095658747        2.0127205004
 H        -10.0269910474        0.1045012993        2.5637481412
 H        -10.7807926143       -0.1720079494        1.2480636257
 O          6.6627555953        0.9997381022        1.1750064329
 H          7.0531675811        0.9435183394        2.0685620915
 H          6.7988209960        0.1354152090        0.7501446519
 O         -4.4813704310        2.3411738713        4.9417193085
 H         -3.8090237782        2.5466255952        4.2723105381
 H         -5.3259451867        2.6134512502        4.5397329319
 O         -4.4878179262       -0.7407453284        3.4926479000
 H         -4.4107529032       -1.7132968644        3.6133758197
 H         -3.8356590397       -0.3546046684        4.1026747934
 O         -7.1742910360       -1.6931253263       -3.5145327606
 H         -8.1118019994       -1.4708705852       -3.5187187002
 H         -6.8253434169       -1.3192270763       -2.6754711929
 O        -10.7540359840        0.8919472520       -0.3685507777
 H         -9.8112265960        1.0742338928       -0.1563917878
 H        -11.1671523307        1.7426217581       -0.5135023641
 O         -6.6214323098       -3.3058299896       -0.4171460179
 H         -7.4081661144       -2.7368068434       -0.3895306982
 H         -6.4683971407       -3.5787144378        0.5017994369
 O         -5.5072283703        1.6579801971       -3.1364049088
 H         -5.3161823321        0.8947973674       -3.7193902779
 H         -6.4671471498        1.6024799081       -2.9574273198
 O         -4.9119910530        3.8362241766       -4.5471825160
 H         -5.6227754536        4.4775568738       -4.3935433837
 H         -5.1762922183        3.0539479186       -4.0111063099
 O         -0.6297189695       -1.6168813320       -5.9265524852
 H         -0.2383218984       -1.7564669117       -5.0412065443
 H         -1.5797994478       -1.8038893143       -5.8234036235
 O         -6.8743505602        5.3938039430       -3.4199603634
 H         -7.1994877177        6.2597874517       -3.6641561808
 H         -6.2960052715        5.5221130304       -2.6192439599
 O         -8.2399845550        1.1355579450        0.5410734371
 H         -7.8322204782        1.9997642136        0.3676110083
 H         -8.3588605696        1.1076263499        1.5165431622
 O         -0.2909033424        3.6040317855       -4.3818628901
 H         -0.4068504192        2.8505412587       -4.9713536941
 H         -1.1787267312        3.9587443778       -4.1822762239
 O          1.5151419164       -6.4903748902       -1.6391305646
 H          1.2616045372       -5.5397343909       -1.6979403597
 H          1.7827950546       -6.6207432715       -0.7221891606
 O          4.6505116566       -1.7910352354        6.0088022741
 H          5.1124755210       -1.3138341252        5.2969499485
 H          4.1105153633       -1.1308782141        6.4551602322
 O          8.9369150146        2.1802473430        0.2952076093
 H          8.0573599208        1.7963902916        0.5034636441
 H          9.1923024461        1.7556094344       -0.5420494241
 O          4.5554177161       -4.3763658435        2.4168329884
 H          5.3913484001       -4.6884771650        2.7766347754
 H          4.5205257869       -4.7046979145        1.5002176281
 O          8.7762754069       -1.5203652861        2.5099949314
 H          9.3756836069       -0.7490738509        2.4513874514
 H          8.1217721746       -1.2962584206        3.1753924934
 O          5.8303655251       -2.0569084657        1.9422219101
 H          5.7287273466       -1.3547496136        2.6120413367
 H          5.0756863863       -2.6546966282        2.0963662918
 O          7.5777906859       -5.2058704211        0.1412491552
 H          6.6401399919       -5.4061049197       -0.0137765835
 H          7.6204637975       -4.8858710755        1.0630314370
 O          4.7361265729       -1.7931095385       -4.5881164747
 H          5.2528179093       -0.9767116308       -4.6387361220
 H          5.2665420550       -2.4405559134       -4.0828522854
 O          7.1316223904        3.7658016790        3.8301979003
 H          7.5872302285        4.3314147623        4.4536942675
 H          6.2142932197        3.6372645553        4.1892819645
 O          1.4392927589        2.9436140965        6.0661330925
 H          1.1779310852        3.4082398107        6.8610989440
 H          1.8614652202        3.6016748395        5.4773407618
 O          2.9125268013       -3.5186382886        0.1483479124
 H          2.8155886793       -2.8791172782        0.8827567479
 H          3.6665427400       -3.1803535303       -0.3643595795
 O          3.0760818635       -1.4707406327        1.8503434030
 H          3.3049025052       -0.7806022271        1.1998818654
 H          2.3283822816       -1.1190811006        2.3437197180
 O         -6.3220312502       -0.4725196657       -1.2713545562
 H         -6.9151752658        0.2845772139       -1.4265132159
 H         -6.4304859182       -0.7267687083       -0.3303468043
 O         -9.6939708331       -0.7333734196       -2.5428076951
 H         -9.3768525982       -1.1364118854       -1.7063440512
 H        -10.5531590855       -0.3650122811       -2.3215552569
 O         10.2176133674        0.7686278614        2.1828933273
 H         10.8674430315        0.2183972700        1.7144479720
 H          9.8544507684        1.3625554001        1.4885722181
 O         -5.0539535193        4.6159099134        1.6913987712
 H         -4.3612304380        4.0150725755        2.0331708458
 H         -4.5619951384        5.3457181586        1.2999520599
 O         -8.1812464822       -2.1315259416        2.8757596182
 H         -7.8617681833       -1.6648742790        3.6685654111
 H         -9.0521092485       -1.7615841780        2.6724382263
 O         -4.1753290561       -2.2109379560        6.5321446545
 H         -3.2245626388       -2.1445999155        6.6775109546
 H         -4.5282463094       -1.3055981100        6.5561678880
 O          5.6153495029       -0.2892637372        3.9382784586
 H          6.3840264201        0.2911573515        4.0252546837
 H          4.8350225259        0.2756793831        3.7506367365
 O         -0.8197070111        1.2476773466       -0.6864863122
 H          0.0028927720        1.5262901912       -0.2711886689
 H         -0.6501433405        0.3182772506       -0.8845248928
 O          0.5694538527       -1.0336665540       -0.3550998153
 H          1.3473849691       -1.0276934814       -0.9218178253
 H          0.5296371616       -1.8927230756        0.0682369026
 O         -0.5747318387        0.9894621497        1.8016765858
 H         -0.0442266719        0.2976122018        1.3956545125
 H         -1.4883749116        0.7320052566        1.6504055927
