  451
       -764.19344688
 H          0.5921995739        0.4305268069        0.3598506803
 O         -7.1769231355        2.0999943950        0.7055690950
 H         -7.4649365339        2.8865007993        0.1884318783
 H         -7.6102956651        1.3561253352        0.2626065415
 O         -0.2512134932        0.4607038732       -0.1817476354
 H         -0.7007188055        1.3935146082       -0.0709078829
 H         -0.9123083009       -0.2882239579        0.0422843862
 O         -3.3200660747        0.7290191827        1.6780623168
 H         -3.4214783082       -0.1898041696        2.0124118141
 H         -3.3107716662        0.6521958349        0.7107203137
 O          2.4006013079        3.1142206895        3.2930645720
 H          2.7885628965        3.9928492047        3.4943443595
 H          1.4358891913        3.2334584248        3.3594684536
 O         -2.0173319294       -3.8834131616        4.1034126888
 H         -2.5699511314       -3.3332986066        4.6923383453
 H         -2.4312776541       -4.7687286399        4.1374764617
 O         -2.0106438340       -1.2937958143        0.2140045747
 H         -1.8239321205       -2.1229933391        0.6908957804
 H         -2.4926605457       -1.5379788245       -0.5974128517
 O         -3.1159305566        3.3394519484        2.4028490318
 H         -3.6644421737        4.1211433199        2.6049455201
 H         -3.5072023553        2.9748062562        1.5891239404
 O         -5.7242704420        0.2935849869       -2.0179140918
 H         -5.8042484235        1.1628143682       -2.4723626199
 H         -5.7982036055       -0.4331071498       -2.6703999420
 O          2.0432142584       -7.5386795183        1.9265735827
 H          2.4888068488       -8.2690430071        2.3547356927
 H          2.5036396564       -6.7218124071        2.2406489896
 O         -0.0932483330       -1.4474822666        2.7801238911
 H         -0.8869279232       -1.9736842031        2.6330913940
 H         -0.3603552179       -0.5017393473        2.6775579898
 O         -2.4222642453        5.5709312947       -0.3277104266
 H         -3.2970144397        5.7427558616        0.0459503620
 H         -1.8288291622        5.2942742044        0.4104445287
 O         -2.7940000285        7.6215858366        2.1185648069
 H         -1.9402283865        7.5567713139        1.6331327043
 H         -3.1821055459        8.4620155640        1.8776630639
 O          1.0768201847        3.1997104370        0.7938040925
 H          1.0436157037        2.8985603668       -0.1341234378
 H          1.4499846980        2.4576336180        1.2832317725
 O         -4.4900673326       -0.0796164224        6.1532319185
 H         -4.0472419998        0.6548006867        5.6998989537
 H         -5.2342660399       -0.2930725322        5.5679830021
 O         -1.4958815115       -3.5199558072        1.5326966164
 H         -0.6272701207       -3.9366488254        1.3848932818
 H         -1.7863666340       -3.7252116609        2.4389229609
 O         -2.0793921583       -1.7345843341       -4.9421136396
 H         -2.9340234501       -2.0156531028       -5.3092299861
 H         -1.4874867862       -1.5787315719       -5.7036919162
 O         -3.6125919626       -1.8543148423       -1.9113069220
 H         -3.6404658609       -1.1390586476       -2.5580188967
 H         -3.5834475984       -2.6605640732       -2.4451933565
 O         -1.1861562080       -0.5203021499       -2.5313185907
 H         -0.2332881130       -0.6045902145       -2.3125319804
 H         -1.3413439936       -1.0834673486       -3.2954363994
 O         -1.4405678645        2.6510727105       -0.1746047536
 H         -0.9456240976        3.2809895679       -0.7433368150
 H         -2.1920543977        2.3243122472       -0.6852778608
 O         -3.6079526235       -1.6449154964        2.7957986163
 H         -2.9541821286       -1.5594901037        3.5147859367
 H         -4.4827465668       -1.4974947325        3.2124632134
 O         -0.1693500695        0.8642826743        7.7875489693
 H         -0.0208957413        0.8384230188        6.8096124834
 H          0.6021699678        0.4321982236        8.1632112217
 O          0.8637458485       -2.5922924492       -4.8674393034
 H          1.6904845093       -3.0842048398       -4.8074543824
 H          0.3329912909       -3.0243711216       -5.5540281847
 O         -3.2445206260        0.8830589137       -1.1053181655
 H         -2.5336100152        0.3537974730       -1.4986401300
 H         -4.0634788043        0.5993000850       -1.5459303262
 O         -4.2107149079       -3.5869114033       -3.9424839565
 H         -4.3604094361       -4.4088053116       -3.4269903137
 H         -5.0253136042       -3.0652338835       -3.8972581729
 O          1.3309613347        5.8038631790        0.2647804665
 H          2.0991493659        6.2644397154        0.6363553586
 H          1.3989636877        4.8713169033        0.5405879176
 O         -0.9929519936        4.6906155968        1.7054385798
 H         -1.7184268235        4.0730302571        1.9673820340
 H         -0.2668076712        4.1072005795        1.4167390358
 O         -2.2930872702        4.2143620443        5.4109720769
 H         -2.0136054437        5.0558964879        5.0032792515
 H         -3.2596224022        4.1545487195        5.2627577597
 O          1.3704478269       -0.5806533555       -1.9415885562
 H          1.4031652877       -1.0604100050       -1.1005254571
 H          2.0278208600       -0.9665483552       -2.5539711937
 O          3.3645514429       -5.4122465469        2.8487131555
 H          3.8472518932       -5.5516376578        3.6794187134
 H          3.1070701043       -4.4782766763        2.8734370505
 O         -6.1096380046       -5.9850592414       -0.4730691485
 H         -6.4455216266       -5.0929319185       -0.6607422445
 H         -5.5046697445       -6.1655791530       -1.2112301331
 O         -2.2299337644       -6.5369583261       -4.1658980065
 H         -1.4645093056       -7.0940201189       -4.3116824114
 H         -1.8781954961       -5.6538329248       -3.9249940442
 O         -2.5497055420       -4.4952285625       -0.7995717621
 H         -3.1208606398       -3.8724065534       -0.3001407320
 H         -2.3017668104       -5.1797360860       -0.1516566050
 O         -5.7307916948        0.5213169318       -5.3211122881
 H         -4.9800900068        0.5473192224       -4.6813944046
 H         -5.4878243385        1.1824666294       -5.9937997849
 O         -0.1974296744       -3.3533940199       -1.3628561735
 H          0.0876386453       -2.7288733541       -0.6673939278
 H         -1.0127664754       -3.7827879083       -1.0394723330
 O         -0.7492720966        1.0218969068        2.2766191260
 H         -1.7073540462        1.0048897619        2.0759010467
 H         -0.5938445715        1.8421745802        2.7703576465
 O         -5.4452868711       -0.6420217738        0.5483948113
 H         -4.8584044500       -1.4066689791        0.5013054525
 H         -5.4923054271       -0.2770541398       -0.3461841614
 O         -0.6284366071       -4.0648321896       -6.7432447944
 H         -1.5767268948       -4.2706072134       -6.5575759867
 H         -0.1521623598       -4.8814315222       -6.5559055053
 O          3.0681676589        4.0138357287       -1.4287516082
 H          3.3746195272        3.7702738907       -0.5358050695
 H          2.4889393608        3.2732598762       -1.6834886766
 O         -3.5453937280        0.3553627210       -3.8868342394
 H         -2.9796594187        1.1377576881       -3.7488794507
 H         -2.9973829175       -0.2793350924       -4.3756916194
 O         -5.7260099708        2.7988817283       -2.7779787681
 H         -4.8609173476        3.1023878913       -2.4419037052
 H         -5.7935301417        3.2125968173       -3.6650862471
 O          2.1136067822        0.6812741358        0.8994771718
 H          2.6129861529        0.9429991233        0.0989308058
 H          2.6485961599       -0.0557942103        1.2567495809
 O         -3.2822030345        3.7991405548       -2.1701785413
 H         -2.6103908922        3.2394743351       -2.6040597279
 H         -2.8359702558        4.3249985243       -1.4759258255
 O          5.4994022790       -4.8289999899        0.6878373640
 H          5.0112700916       -5.6591355876        0.6812568763
 H          5.7904468523       -4.6628353152        1.6129202401
 O          3.6227330751       -1.8260116526       -6.0675773945
 H          4.3078144680       -2.4957491211       -6.1230126708
 H          3.3644559048       -1.7828205225       -5.1197383771
 O         -0.1659246788        4.4363224504       -1.6932285247
 H          0.2251608589        5.1483584988       -1.1757590561
 H         -0.6467928227        4.8203184188       -2.4461136505
 O         -0.2127726526        3.0815433010        3.9000057909
 H         -0.0723529832        2.3360907568        4.5266009935
 H         -0.9469061236        3.5936052018        4.2617263624
 O          5.7661342513       -0.8941903522       -3.3441110258
 H          6.2203885940       -0.1016156518       -3.6795125104
 H          6.2930060912       -1.2358314283       -2.5980192395
 O         -1.5654092078        2.0294324291       -3.1534325471
 H         -0.7980963620        2.4492153712       -3.5882782678
 H         -1.2616968348        1.1424389238       -2.8717513139
 O         -0.7155891397       -1.4455990277       -7.2952428564
 H         -1.4430720110       -1.0729248517       -7.8086547822
 H         -0.6962187561       -2.4065038652       -7.4273394943
 O         -2.1140454194       -1.0123609919        7.3841086883
 H         -1.5115207481       -0.3043778462        7.6842736292
 H         -3.0134764612       -0.6676427378        7.4231636064
 O          0.4972678383       -4.6655334287        3.9419583783
 H          0.8918907833       -4.8448483103        4.8370390970
 H         -0.3656188446       -4.2369782441        4.1220982082
 O          4.6585404081        0.6844473576       -5.7642964099
 H          4.1495966216        0.8448082582       -4.9346258519
 H          4.4307747955       -0.2259476880       -6.0189340064
 O          5.2053409978        5.6761485079        0.6065025153
 H          4.8748060773        4.7705653490        0.7655850652
 H          5.2251254447        5.7908623209       -0.3632471730
 O         -7.9427396438       -2.5345114002        3.1960614513
 H         -7.9996449037       -2.2868795613        2.2472895231
 H         -8.8299757843       -2.7289333472        3.4946814721
 O         -6.4121434142       -3.2824420840       -1.0212741903
 H         -5.5464583532       -3.1834305976       -0.5890991443
 H         -7.0492881600       -2.8400685918       -0.4241550330
 O         -2.9926038709        0.0239290830       -7.6364204833
 H         -3.5406766833        0.8132185097       -7.7323341298
 H         -3.5595553838       -0.6380377672       -7.2022290520
 O         -4.5737556876        2.2984235424       -7.0555354513
 H         -5.1890659248        2.9987503827       -7.2787953244
 H         -3.8923492642        2.7208269010       -6.5022652963
 O         -3.0064233386       -5.1282917560        6.7023369577
 H         -3.5497658206       -4.3569242326        6.4723291691
 H         -3.1144860394       -5.7586864180        5.9820713778
 O         -4.5559321505       -5.8080501868        1.6516268899
 H         -5.2258784128       -6.0055422549        0.9517473534
 H         -3.7189890691       -6.1493568027        1.2972205253
 O          2.4853283142        2.2798483740        5.8605556469
 H          1.7285010494        2.7761948044        6.2036323243
 H          2.5284907172        2.4779262393        4.8989415879
 O         -4.6051174058        5.5933503885        2.4758503155
 H         -5.0698505945        5.6054937118        1.6278541524
 H         -3.9817550837        6.3378853093        2.4445042783
 O          3.8602504409       -1.1371837080        1.7625440296
 H          3.6278671180       -2.0357975344        1.4766370424
 H          4.3193247973       -1.2551454515        2.6143420681
 O          2.4396222765       -2.7856163920        3.4056091191
 H          2.2405179917       -1.8329052788        3.4364166255
 H          1.6016484972       -3.2463822571        3.5811927589
 O          3.0136811973        1.2458330717       -3.7407337228
 H          2.9305278141        2.1918865689       -3.9601024473
 H          2.1772735633        0.8276590272       -4.0361396800
 O         -0.8757250804       -3.5046410561        7.0105136251
 H         -1.3359523637       -2.7428800222        7.3879961670
 H         -1.5656474991       -4.1936466706        6.9169362759
 O          6.2083599077       -4.0907465623        3.1309294206
 H          5.9743142619       -4.7118983695        3.8289873726
 H          5.8685581971       -3.2241466083        3.4448486308
 O         -1.1621905487        6.1558921969        3.9018442849
 H         -0.9901617350        5.6166524662        3.0914743072
 H         -1.7644175390        6.8489931699        3.6116445919
 O         -7.8034325797       -1.7349032909        0.6699654258
 H         -6.9255058121       -1.2768284146        0.7801114941
 H         -8.3201801364       -1.1139326880        0.1350226493
 O          2.1276298458        6.5057499946       -2.3961157557
 H          2.2310590536        5.6446650835       -1.9541055456
 H          1.9080266149        6.3324282253       -3.3182493733
 O          0.8645338378        0.0871978897       -4.8802158589
 H          1.2667998915        0.1275035900       -5.7710346298
 H          0.8174668670       -0.8715451573       -4.6949306422
 O          3.2455663728       -1.6917540558       -3.3955213935
 H          4.1225145758       -1.2876155049       -3.2319035858
 H          3.1944219490       -2.4696763273       -2.8211885937
 O         -0.3098011965        7.6264467924        1.1473740274
 H          0.1616658346        6.8011183167        0.8646292826
 H          0.2099313657        7.9898674435        1.8649167800
 O         -4.8972234446        3.8228880521        4.6685484776
 H         -5.1616672623        3.0146748569        4.1982789722
 H         -5.1145964622        4.5543986201        4.0798382048
 O          3.3123470834       -6.0685903718       -0.4419974697
 H          3.7041057427       -6.3391786636       -1.2953533151
 H          2.8401197707       -6.8152003054       -0.0706016252
 O          4.7546832663       -5.3564305899        5.2054215732
 H          4.3908943716       -4.5026464527        5.5133088388
 H          4.6168921951       -5.9759533906        5.9217943922
 O         -5.5913291975        1.6202595925        2.9313928728
 H         -6.2620157909        1.8205826783        2.2628920362
 H         -4.7861979066        1.3586076505        2.4360639654
 O         -4.6071959113        6.0047730178       -2.9043443603
 H         -4.0543613807        5.2009314200       -2.8050459488
 H         -3.9838339049        6.7397684329       -2.9193403718
 O         -5.2028391758        5.4874524747       -0.2547653795
 H         -4.9786381903        4.5328590814       -0.2162859521
 H         -5.1063777304        5.7633568208       -1.1859947961
 O         -7.5087140013        4.0386383554       -1.0638315712
 H         -6.9926825637        4.7948402110       -0.7551766078
 H         -6.9695218130        3.6078569922       -1.7539484166
 O          3.0240345476       -4.5008312806       -4.4032628022
 H          2.7417728324       -4.2876790537       -3.4806605033
 H          3.8857891714       -4.0500954629       -4.5334508301
 O          0.6755940223        3.0639475639       -4.0686249570
 H          0.7656916732        3.9692870843       -3.7582987484
 H          0.6765557330        3.1242139555       -5.0511557003
 O         -2.7837861051        3.4986191654       -5.2982277511
 H         -2.1693702197        2.7507695000       -5.4229989195
 H         -2.2485421445        4.2063664722       -4.9017919392
 O         -4.5227933506       -1.7178892691       -6.1981647666
 H         -5.1307878453       -1.0347839074       -5.8380909382
 H         -5.0323622429       -2.5001736107       -6.4058398327
 O         -8.0864734650        0.0994248652       -4.0236752262
 H         -7.2684828287        0.3568999034       -4.4945097487
 H         -8.8105417482        0.3224049730       -4.6068773643
 O          7.1287483316        2.0638165850        5.0200433152
 H          6.5503184083        2.0921577570        5.7947676178
 H          6.7842716106        2.7601808662        4.4400589952
 O          3.8041071557        0.8394199765       -1.1947873642
 H          4.1176422516       -0.0868594868       -1.1425290575
 H          3.4886889007        0.9727807260       -2.1114914542
 O         -2.1418362364        7.2669300227       -2.4089417564
 H         -1.3423331071        7.8095417692       -2.2312852855
 H         -2.2317562396        6.7160857591       -1.6055260094
 O          3.4100766372        5.5034454273        3.8342447290
 H          2.6934679232        5.7020782865        4.4697832464
 H          3.3243789052        6.1427297975        3.1067613683
 O          8.0129761243        0.8463974504       -1.8908939102
 H          8.1773237637        0.9550276141       -2.8327338345
 H          7.2130563161        1.3946641818       -1.7164392830
 O          5.3937892231        0.9481618035        1.2787724619
 H          5.3252543060        1.0482768299        2.2472128981
 H          4.8928832103        0.1300714221        1.1112099194
 O          0.1701083343        8.2693575543       -1.5852728738
 H          0.9207051477        7.6932360847       -1.8194326277
 H          0.0506421552        8.1915658411       -0.6292238145
 O          8.0255650316        1.1266894603        0.8837151669
 H          7.0580039319        0.9447787730        0.8892699914
 H          8.3208553701        0.9812541932       -0.0232429804
 O          7.5477628800       -1.8075908250       -1.4813575309
 H          7.9397530312       -0.9262497898       -1.6156851365
 H          7.3475117364       -1.8583753161       -0.5319475485
 O          3.0017575475        2.1458774378       -7.2588738729
 H          3.7435590745        1.6988393510       -6.7959216230
 H          2.5158179095        1.4012866965       -7.6393817224
 O          2.1405757526        0.0450120760        3.6711830501
 H          1.7747410880        0.4013384013        2.8555543191
 H          3.0190934709        0.4683829658        3.7659476162
 O          4.3760075535       -6.3950968726       -2.8936485890
 H          3.9422557257       -5.8534633471       -3.5794439711
 H          5.2042398296       -5.9394216375       -2.6976300097
 O          5.9096289111        2.4058205553       -1.3160674693
 H          5.1105881950        1.8408581527       -1.1745795329
 H          6.0894048174        2.8707761912       -0.4836059802
 O          4.5570165610        1.1695126957        3.8413004934
 H          4.8578018320        0.7610503851        4.6721077964
 H          4.7662186172        2.1197726370        3.8791106632
 O          3.9758610670        3.2420800723        0.9993240293
 H          4.5055842516        2.4208049688        1.0026042975
 H          3.3842092034        3.1726121535        1.7671159107
 O          6.9501037259        1.3267442112       -4.4825732338
 H          6.7210588281        2.2362990671       -4.2445653727
 H          6.3238175318        1.1032403076       -5.1927344975
 O          1.7487945147       -0.2914057559       -7.3866964861
 H          2.4041848021       -0.9560833029       -7.1246801318
 H          0.9079209174       -0.7581483384       -7.5268088749
 O          0.6509477244       -5.7679131126       -4.8320571220
 H          1.5278095519       -5.3613232814       -4.8945997368
 H          0.0649779736       -5.0906164696       -4.4301402453
 O          1.2579543101        2.0633268342       -1.6409826108
 H          0.8994321515        2.3937529441       -2.4730362786
 H          1.3330142660        1.0943483742       -1.7424418443
 O          7.4710653966       -0.0275815357        3.3206589765
 H          7.9832250145        0.3886530717        2.6145662188
 H          7.3963784749        0.6586425142        4.0146321745
 O          3.2174557101       -3.4852086288        0.6612975956
 H          2.5010244705       -4.1216227831        0.8428239563
 H          4.0524217460       -4.0000179205        0.6600385293
 O          6.2400591834       -4.3212160029       -1.9751327878
 H          6.8386193272       -3.5649923803       -1.9051326219
 H          5.9663869305       -4.4982446165       -1.0619121733
 O          3.3128290148        7.1064799663        1.6021407526
 H          4.0904915937        6.5965505917        1.2205505739
 H          3.5571256338        8.0302399179        1.5708418012
 O          5.7516711914        3.7292815752       -3.6280750500
 H          5.7251698775        3.2285758151       -2.7815126596
 H          5.8091363857        4.6529918426       -3.3513281683
 O          5.4455288825       -3.3571197486       -4.4560974728
 H          5.6073094728       -2.4237019595       -4.2136285865
 H          5.8130082310       -3.8517289885       -3.7091319661
 O         -1.1721528725       -4.0916307683       -3.7407991558
 H         -1.5485516196       -3.3197505165       -4.1947972256
 H         -0.7798024606       -3.7516492761       -2.9188512838
 O          5.0104924237        2.4080612242        6.8544381111
 H          5.0838418953        3.2030441273        7.3806870737
 H          4.0955948931        2.3915941753        6.5007416480
 O          5.5320492936        3.6878632034        3.4876128107
 H          4.9445155672        4.4441470797        3.6182233386
 H          5.8812635991        3.7349039130        2.5806953920
 O          0.1361689288        0.8191074389        5.1735184521
 H          0.9407333774        0.5059156465        4.6982060873
 H         -0.5669728001        0.1843393830        4.9252249244
 O          1.0505335571       -1.8392156833        0.4411254935
 H          1.8179446478       -2.4092003939        0.5482354969
 H          0.6694229309       -1.7213862371        1.3414415575
 O          0.0908352810        3.4976582294        6.8188797081
 H         -0.0649245542        2.7571781843        7.4237049926
 H         -0.7838581470        3.7622355259        6.4982054239
 O          6.8878451482        3.5438944823        1.0499388375
 H          7.4049485854        4.3392060064        0.9249041425
 H          7.4968137041        2.7779345568        1.1061964100
 O          2.3623061108       -3.8950314220       -1.9394965701
 H          2.6670002097       -4.5733010276       -1.3158910346
 H          1.4070151534       -3.7677889189       -1.7720807667
 O         -5.4005050485        4.2664972249       -4.9609340620
 H         -5.4105493872        5.0960602650       -4.4637688040
 H         -4.4587565341        4.0412719038       -5.0589101632
 O          0.7059654100       -1.9953609460        5.4002627368
 H          0.0871702419       -2.5177786014        5.9348815356
 H          0.2631137081       -1.7745990377        4.5654913783
 O          1.1919148406        5.7094199692        5.3242733819
 H          0.3856465249        5.9544801488        4.8450614004
 H          0.9302368048        5.0212965074        5.9469160604
 O          2.3381469491       -0.3494546143        6.7682040162
 H          1.7223213776       -0.9010929664        6.2379351863
 H          2.2682986538        0.5572177998        6.4189357122
 O         -2.9358819456        1.6164903651        4.5444964179
 H         -3.0922320470        2.0517825804        3.6841289833
 H         -2.6212502548        2.3196053587        5.1211969797
 O          4.9229453495       -0.2730356668        6.1655197767
 H          5.3185683300        0.3949000389        6.7316414528
 H          3.9824090411       -0.3322999104        6.4458829082
 O          1.4520146708        5.6130950993       -4.9922614300
 H          2.2031088921        4.9863227352       -4.9023268733
 H          1.1561877334        5.4948546284       -5.8987095517
 O          1.4613745350       -4.9080862588        6.3479487940
 H          0.7235961541       -4.5008324689        6.8247723426
 H          2.1699475521       -4.2363003226        6.3113234313
 O          0.5981621321        3.3549914000       -6.6839945494
 H         -0.0806015973        2.6676389438       -6.7784679806
 H          1.4390192469        2.9797085574       -6.9953610248
 O          5.4160156501       -1.6612346165        3.8970554062
 H          6.1908619142       -1.0982027235        3.7116630502
 H          5.1730882415       -1.4471219281        4.8091522721
 O          4.5893266109       -1.7029542060       -0.9114409448
 H          3.9554214206       -2.3760341382       -0.6321758918
 H          5.3000552906       -1.7295897793       -0.2583652747
 O         -4.1989699692       -5.7850978116       -2.4290375902
 H         -3.5554819915       -5.3352495445       -1.8305844123
 H         -3.6626450779       -6.3444959753       -3.0079620463
 O         -5.4717160119       -3.8140544545        3.5566015120
 H         -6.3783048701       -3.5034099762        3.4355394967
 H         -5.3617646776       -4.6238542660        3.0500325031
 O         -3.9662017525       -2.8104931433        5.5826462191
 H         -4.6205345644       -3.0886704811        4.9170571987
 H         -4.1893604016       -1.9086431516        5.8562038666
 O         -2.0156995236       -6.5611011698        0.8518525198
 H         -1.3845377630       -6.9066041293        0.2033408565
 H         -1.5321571470       -6.6266860437        1.7023210554
 O          3.4338506206       -3.0946906018        5.8475150653
 H          3.1022954245       -2.8956946315        4.9353363472
 H          3.2825686826       -2.3039449037        6.3709112688
 O          3.3530973888        3.7190161225       -4.8190170023
 H          4.2652866013        3.7514699318       -4.4538055899
 H          3.4086573189        3.3780659731       -5.7196622902
 O         -0.4986496673       -6.9464410354        3.0252346410
 H          0.2919740418       -7.3793338487        2.6733399645
 H         -0.1624181246       -6.1302631787        3.4646346565
 O         -1.9206601959       -0.8209694319        4.7049761625
 H         -2.0445359945       -1.0684585763        5.6434819826
 H         -2.3842828162        0.0328335606        4.5840447812
 O          6.6453497526       -1.8615813801        1.1030389775
 H          6.6783211424       -2.7137016808        1.5475917844
 H          6.9482022279       -1.2092133921        1.7468273200
 O          4.8831199004        5.8380203704       -2.0929985974
 H          4.3042066448        6.5754496752       -2.3118584731
 H          4.2676835385        5.0823283652       -1.9677392056
 O          0.3858361380       -6.9595228961       -0.3145285847
 H          0.8469924162       -7.5975483938        0.2372948339
 H          0.7432075074       -7.0384568523       -1.2251783963
 O         -4.2821581323       -3.2363619797        0.7790261672
 H         -4.4829871503       -4.1105055677        1.1647925164
 H         -3.9200281471       -2.7266413125        1.5340738006
 O         -4.6545509618        2.8874044447        0.1898234998
 H         -5.5354262537        2.5152631665        0.3939919181
 H         -4.2212009502        2.2733642758       -0.4125307027
 O         -3.0833719491       -6.3520179230        4.0665349188
 H         -3.7197826304       -6.3320305845        3.3387569545
 H         -2.3312109564       -6.8875102351        3.7850997334
 O         -8.2635087457        0.2576722869       -1.0894738688
 H         -8.8272345147        0.4806806450       -1.8315089916
 H         -7.3556394493        0.2447950228       -1.4616261207
 O         -6.3255207255       -1.9572838699       -3.3430993953
 H         -7.1879380596       -1.5952132683       -3.5794838692
 H         -6.4304711541       -2.4666663900       -2.5062770612
 O         -5.8830406769       -0.8203359278        3.9691801190
 H         -6.6890452824       -1.2993219007        3.7393179177
 H         -5.9170216862        0.0744878168        3.5633681401
 O         -1.2268029746        5.4021879325       -3.9981363955
 H         -1.6290840168        6.1855416516       -3.5463864517
 H         -0.4263083477        5.7065688564       -4.4426732862
 O          1.4828794274       -7.2435416001       -2.7246796908
 H          2.4337645896       -7.2779553265       -2.8598971045
 H          1.1146670770       -6.7807021250       -3.5065551068
 O         -1.2286767251        1.3943872932       -5.9981609032
 H         -0.5706226515        0.8630688912       -5.5068896777
 H         -1.7270899857        0.8063434065       -6.5861315608
 O          0.8885905112       -4.7345924034        1.1699544400
 H          0.9576303635       -4.9775843026        2.1024859465
 H          0.7139933041       -5.5347357584        0.6395033963
 O         -3.1246989334       -4.7314762121       -6.1190694745
 H         -2.9587786106       -5.5995205227       -5.7255017784
 H         -3.5223527790       -4.2183525451       -5.3869701076
