  222
       -371.48286452
 H         -1.4596815746        0.8190487372       -0.5748470321
 C         -0.9740594263        1.5067275163        0.1151373957
 H         -1.6423316181        2.3477961847        0.3061539378
 C          0.3296176433        2.0060261918       -0.4888764033
 H          0.7768129304        2.7705097023        0.1436175975
 H          0.1451815624        2.4121489575       -1.4779327331
 O         -0.7318963386        0.7706146451        1.2983800829
 H         -0.3223007169        1.3809152071        1.9433675930
 N          1.2326673887        0.8546243368       -0.5916843562
 H          0.7581621017        0.1048337554       -1.1439599420
 H          1.4394796179        0.5031133811        0.3706622150
 H          2.1488626483        1.1120223255       -1.0039535599
 O          1.0477418198        5.0476618206        0.2082956376
 H          1.6917848865        4.8004157818       -0.4693961248
 H          0.3995970762        5.6271067857       -0.2385298895
 O          0.5424432074       -3.8184997090       -3.4064387162
 H          1.3471484766       -4.3444536538       -3.3172090265
 H          0.1420956589       -3.8170687351       -2.5059150023
 O          2.1483905822       -2.2561449007       -1.3746134899
 H          2.4067597186       -3.1189886146       -1.7727575003
 H          1.4882176409       -1.8473392322       -1.9507345402
 O         -1.7099641200        4.3588694396        1.8671685852
 H         -0.9169195213        3.8185985643        2.1009210783
 H         -1.4736746133        5.2706235865        2.0437431577
 O         -0.7916318289        6.3422403503       -1.2900789944
 H         -1.6676606219        5.9799771938       -1.0775830482
 H         -0.5724915074        6.0187833226       -2.1706272015
 O         -3.3441829441        2.6586463643        3.2966829544
 H         -4.2673837090        2.9842084010        3.4157571076
 H         -2.8764509038        3.3521456536        2.8013108627
 O         -3.3148457412        0.4290805535        1.7920284790
 H         -3.4418815899        1.2199004406        2.3545038332
 H         -2.3459679673        0.3548378804        1.6667485425
 O          3.0218356065        2.5806572082        4.5433506834
 H          2.8064577955        3.3661326453        4.0255443236
 H          3.9545054883        2.4023557625        4.3574834627
 O          0.3196180576        4.4990363001       -3.2422664765
 H          0.7094572552        4.2122455335       -4.0717769798
 H          1.0509843480        4.5065837012       -2.6078654738
 O          2.7580445611        4.1075318615       -1.8179845336
 H          3.6884010046        4.2506322714       -1.6185426690
 H          2.7633006572        3.6155341388       -2.6707283514
 O         -0.8271607063       -2.7652689929        3.6910292992
 H         -1.1676557366       -3.6621197565        3.5606870949
 H         -1.1432623679       -2.2539328151        2.9275272479
 O          1.3656284586        0.4496930565        4.2986808730
 H          0.4520918519        0.7115154666        4.4969901941
 H          1.9568735586        1.1836604844        4.5589430352
 O         -4.0656418802        0.7702321649       -0.7344377216
 H         -3.9027775876        0.6307109049        0.2243220749
 H         -4.3205082499        1.7034957914       -0.8284671107
 O          4.1564692506       -1.2511100133       -0.0728396314
 H          3.9848414512       -1.7792644092        0.7377052490
 H          3.4774755547       -1.5759915475       -0.7055203295
 O         -2.0903782338        0.3817874022       -2.9692616183
 H         -2.9661540963        0.2910857962       -3.3894117296
 H         -1.9914115501        1.3204979033       -2.7502913436
 O          3.7731009128       -0.8902466622       -3.3287300627
 H          4.1054831656       -0.0231924389       -3.5740869292
 H          2.9391997735       -1.0398811694       -3.8002795284
 O         -3.1812642252       -4.7195422310       -1.0960926984
 H         -3.4717274976       -4.5340726631       -0.1868433379
 H         -3.8833153063       -4.4079392838       -1.6763526632
 O          0.3410180752       -4.7883820431        1.1292877737
 H          0.6251811671       -3.8850399887        1.3708486365
 H         -0.3657532086       -5.0394501992        1.7407535160
 O         -1.9266878729        3.1193195584       -2.5068852177
 H         -2.5888910500        3.1347435882       -3.2394072946
 H         -1.1510273939        3.6043322587       -2.8418119688
 O          2.1093144225        0.0282750453        1.8144671357
 H          1.7343769641        0.2742985003        2.6871574642
 H          3.0607647046       -0.1091822397        1.9794722958
 O         -1.2346728467       -1.0009310877       -5.6380000950
 H         -1.5880881142       -1.4583184952       -4.8373322033
 H         -1.7697308018       -1.3114071539       -6.3691288112
 O         -2.5782980085       -1.0856414692        5.0341987810
 H         -1.8339301779       -1.7016646211        5.0212660358
 H         -3.1594553195       -1.4020731724        4.3092435230
 O         -1.7515880963       -2.0715784462        1.1106418894
 H         -0.7781005399       -2.0101317353        0.9555288820
 H         -1.9791679846       -3.0056288743        1.1020890338
 O          6.5030170641       -1.8231543246       -1.0295577401
 H          5.6038947829       -1.5831472543       -0.6740119359
 H          6.3075311812       -2.5052822271       -1.6902382620
 O          5.1665699827        1.7299810872       -3.1938149661
 H          5.3512846633        2.6150626790       -2.8306873107
 H          5.9786696450        1.2120296667       -3.0412860916
 O         -4.0634126020       -1.8387344680        2.9020556867
 H         -4.9569247229       -1.4831724790        3.0866931510
 H         -3.6558329767       -1.1241717989        2.3627973417
 O         -1.9010018851       -5.1516461040        2.7492561049
 H         -2.7262257337       -4.8708300301        2.3001847342
 H         -2.0956307164       -5.9743242918        3.1975397309
 O         -7.6973186641       -1.7882047883        1.5913098151
 H         -7.2613356288       -1.3506618128        2.3375634217
 H         -7.9242626450       -1.0743993173        0.9706146684
 O          1.8512126356       -2.2373354347        3.8938145871
 H          0.9366661114       -2.5688671416        3.8612977830
 H          1.7521474278       -1.2937508451        4.1091454256
 O          3.5522358051       -2.9661584761        1.8861508149
 H          2.8897439253       -2.7101555013        2.5610464015
 H          4.3577330596       -3.2161463156        2.3667373469
 O          5.4386798398        2.1053095980        3.0787437681
 H          5.0596195612        2.5948964431        2.3247695797
 H          5.0573687782        1.1967719436        3.0108329235
 O          5.9690756749       -3.4260777915        3.1268443275
 H          6.4601790045       -2.7070373379        2.6881293605
 H          6.4993990752       -4.2189684374        3.0461843195
 O         -0.7348011283       -3.6915727171       -1.0918828102
 H         -0.2844988993       -4.1893021743       -0.3813158421
 H         -1.6211253628       -4.0997013754       -1.1851347999
 O         -8.0749306569        0.3014559283       -0.1732624063
 H         -7.4269455266        0.0828909831       -0.8939030428
 H         -8.9125292298        0.4892433122       -0.5958649017
 O          0.8665034890       -2.1714762787        0.9804098148
 H          1.3046387332       -1.4183623656        1.4257646521
 H          1.3221136523       -2.2704035783        0.1200718697
 O          3.8524225960        1.2510868163       -0.8707510089
 H          4.0633957708        0.3677136254       -0.5050312003
 H          4.3195118667        1.3382553622       -1.7210249775
 O          1.2735699021       -1.4449675778       -4.4314307797
 H          1.0298558883       -2.3154675776       -4.0418067513
 H          0.5901396361       -1.2863100790       -5.0962106186
 O         -5.1185025436        3.2668523006       -0.6791785427
 H         -4.3596308694        3.8944479252       -0.5784578456
 H         -5.6440910063        3.5957698195       -1.4087133159
 O          4.3575771312        3.2056115087        0.8488980205
 H          4.8569726492        3.8176071298        0.3014059562
 H          4.1102953690        2.4649077274        0.2487815711
 O          2.9733846099       -5.1391852202        0.2842497574
 H          2.0583523965       -5.3186496863        0.5391837595
 H          3.2279301957       -4.3567980601        0.8062973245
 O          2.9888839693       -4.5755172779       -2.3064193192
 H          3.8885863616       -4.3058891493       -2.5444294834
 H          3.0391352032       -4.9421096141       -1.3920432897
 O          0.2637392320        2.8174974677        2.7436395344
 H          1.1185201742        3.3078948774        2.6585529809
 H          0.1081435413        2.6432070181        3.6762673542
 O          7.6611172116        1.3054798250        1.9423114791
 H          6.8657217406        1.6555641896        2.4371600162
 H          8.4298108496        1.5768122602        2.4442704092
 O          2.3947478275        4.2961744806        2.3760828474
 H          3.1203226680        3.8871479978        1.8675963787
 H          1.9107026231        4.8235099420        1.7126178958
 O          6.9702794522       -1.3309499927        1.6792240953
 H          7.3604063179       -0.4406363344        1.7613467079
 H          6.9919062144       -1.5611507559        0.7382161590
 O         -3.4679178393        2.7369003971       -4.6164227421
 H         -2.6705194906        2.4392336436       -5.0828333857
 H         -4.0136807702        1.9413240997       -4.5145553710
 O         -2.9740627049       -1.6760380983       -1.2402916392
 H         -2.5579101798       -1.7709155402       -0.3560167748
 H         -3.1876787583       -0.7335374148       -1.3342850324
 O          5.6610866410        3.9909680216       -1.6217855664
 H          6.3358888713        3.4139904756       -1.1745678970
 H          6.1393520193        4.7535795525       -1.9481533045
 O         -1.2557684096        1.2424705458        4.5445800272
 H         -1.9382468030        1.7923681820        4.1353893183
 H         -1.7037466449        0.4065540556        4.7810373130
 O          7.3066348067        0.2714345060       -2.3693729086
 H          8.1057342392        0.0205698082       -2.8321762259
 H          7.0079967844       -0.5291189400       -1.8541714755
 O          4.4205781527       -1.8574455896        4.8663050497
 H          3.5107695752       -2.1832488839        4.8078792899
 H          4.9996577913       -2.5768388225        4.5851996040
 O         -4.6754436875       -2.4033231730       -4.5685590368
 H         -3.7495207067       -2.6372058672       -4.3956273325
 H         -5.1575518792       -2.6852963628       -3.7812796268
 O          7.4261440649        2.3707566115       -0.5815477256
 H          7.4958604210        2.0218966437        0.3250856429
 H          7.4657034863        1.6021746695       -1.1745769180
 O          0.8497907648        1.0705549082       -3.4263107591
 H          0.9866130081        0.1353282534       -3.6597139685
 H          0.0744361914        1.3512174365       -3.9374408170
 O         -0.1589725999       -1.0889823000       -1.9008400602
 H         -0.5391326054       -1.8730942908       -1.4770167369
 H         -0.8799779508       -0.6138003795       -2.3593203421
 O         -4.6601230603        0.8275132998        5.2577560788
 H         -4.0411628217        0.1410328792        5.5368918643
 H         -4.1205512291        1.5404925147        4.9001759823
 O         -6.3201341838        1.7752782215        1.3379772452
 H         -7.0543195599        1.3468361421        0.8664426029
 H         -5.8733053432        2.3342450264        0.6815037580
 O         -5.9118134472        3.2102123460        3.6060734551
 H         -6.2776327997        2.7475992743        4.3630418674
 H         -6.2425462836        2.7596163414        2.8064569713
 O         -6.1932280507       -0.2656289642       -1.9140002137
 H         -6.0360906596       -1.2314338297       -1.9558984475
 H         -5.4243996470        0.0982339621       -1.4120733680
 O          5.2428096937       -3.1294543230       -3.0901129449
 H          4.6942102274       -2.3154540821       -3.1625770305
 H          5.5183442963       -3.3552372108       -3.9785601304
 O          2.6973183195        2.7934653921       -4.1365471281
 H          2.0330106548        2.1020742811       -3.8946294082
 H          3.5580895291        2.3643910711       -4.1411935550
 O         -5.3173221576       -2.8224563069       -1.8123008701
 H         -4.4545765756       -2.4449239362       -1.5249812717
 H         -5.7495789528       -3.1848222496       -1.0175682808
 O         -4.5604297908        0.2295004720       -4.0962420489
 H         -5.2595380453        0.2510047227       -3.4219301955
 H         -4.6154969755       -0.6782902012       -4.4668469431
 O         -2.0973732466       -2.5950502567       -3.6887574705
 H         -2.3216565506       -2.2874806024       -2.7882608583
 H         -1.3558043235       -3.2058701386       -3.6190011597
 O         -3.9783118508       -4.0439521808        1.4595345428
 H         -3.9778542250       -3.2130064538        1.9970850385
 H         -4.9127124229       -4.1513985488        1.2107812944
 O         -2.8928021337        4.6654386465       -0.5899539871
 H         -2.4615481343        4.4985508013        0.2663852368
 H         -2.4866840049        4.0569639602       -1.2535759443
 O         -1.0190177805        1.6653462405       -5.4107394271
 H         -0.5983961609        1.9109871748       -6.2345713445
 H         -1.1903493197        0.6981595050       -5.4527946420
 O         -6.4848986603       -3.8008056864        0.4574786617
 H         -6.9250023309       -3.0292124156        0.9103402625
 H         -7.1632520601       -4.4698413152        0.3644922328
 O          4.6088781956       -0.3565437076        2.7010040654
 H          5.3861441751       -0.7499542970        2.2660121190
 H          4.5187915911       -0.8214608691        3.5685263681
 O         -6.1466604128       -0.2298406839        3.2601248291
 H         -5.7557003177        0.1515483847        4.0719256643
 H         -6.0694712217        0.4578841231        2.5781335804
