  84
       -142.51170082
 O          0.4724733187        0.1776619936       -4.4156337329
 H          0.4587274778        0.4357936143       -5.3376367017
 H         -0.1653634311       -0.5823964410       -4.3372109429
 O          4.5861317852       -0.4727415078        2.4428643796
 H          3.9405753409       -0.2505329516        3.1417868090
 H          4.8374406704        0.3880706352        2.0582586586
 O          1.9981468014        1.9285394714       -2.7285586609
 H          2.4988007373        1.2436725105       -2.2542519443
 H          1.3925387558        1.4473982154       -3.3099080194
 O          2.7248308864        0.2353796584        4.3132562927
 H          1.9265743764       -0.0833812626        3.8347058965
 H          2.7880149230       -0.2970547505        5.1066419515
 O         -0.9511839885        4.1780417245        0.3331449841
 H         -0.7031650913        3.9036609910        1.2323424334
 H         -0.1424109931        4.1094845039       -0.1977099720
 O         -3.2221578916        3.0431786892       -0.3678171682
 H         -2.3250482880        3.4034602308       -0.1472567793
 H         -3.7931148095        3.8117449574       -0.4173431466
 O         -4.7809951615       -3.0461892090       -0.7248739493
 H         -4.2580059530       -3.6974914404       -0.2550220083
 H         -4.2184254259       -2.7259529525       -1.4643167073
 O          1.5167967774        3.8237534273       -0.9740155750
 H          2.0094770356        4.5860949436       -1.2798485769
 H          1.6496553093        3.1226311389       -1.6645089725
 O         -4.0515531421        0.8630613228       -1.8020420142
 H         -3.6782047162        1.6406686425       -1.3440651934
 H         -4.8659214588        1.1516766315       -2.2170219377
 O          2.8858376240       -0.2920111401       -1.3836524004
 H          3.3722587750       -0.8554782303       -0.7554870962
 H          2.7770303992       -0.8404136028       -2.1988222638
 O         -1.0093635604       -1.9861678302       -4.2187541199
 H         -0.4498949702       -2.6040378689       -3.7228664910
 H         -1.8504333321       -1.9549811856       -3.7246897022
 O          1.2021187599       -3.0262414514       -0.1155864222
 H          2.0673728498       -2.6795054521        0.1521120393
 H          0.7052262145       -3.2086290907        0.7129377737
 O         -0.2543590013       -3.1598356361        2.1340009186
 H          0.1754548718       -2.4262128524        2.6069125850
 H         -1.1532211307       -2.8381811506        1.9754604066
 O          2.4402775011       -1.6255338345       -3.6224305951
 H          1.8346291072       -0.9828162446       -4.0286052824
 H          1.8915958910       -2.3904924118       -3.3808809025
 O          0.7357355691       -3.5875933513       -2.6832455803
 H          0.8360882500       -4.5336907914       -2.7878616670
 H          0.8782761025       -3.3993312198       -1.7288018104
 O         -1.5663390732        1.0031119467        3.0435481848
 H         -1.0332721108        1.8137785741        3.0051370944
 H         -2.4703386835        1.2796857288        2.7811171440
 O          3.7447474042       -2.0218003772        0.5202473210
 H          4.4732586814       -2.6288023734        0.3886863973
 H          4.0115150914       -1.4426767249        1.2868634500
 O         -4.6940536678       -0.6368292190        0.4732494076
 H         -4.4278894480       -0.1591833329       -0.3308240003
 H         -4.9336246043       -1.5316238636        0.1553799013
 O          0.6208165587       -0.6745534169        2.9333046185
 H          0.8440581957       -0.4426407874        2.0125969246
 H         -0.1786867723       -0.1605156954        3.1342238419
 O         -3.9384259320        1.6390524418        1.9461158026
 H         -4.3846093289        0.8417437779        1.6291787378
 H         -3.6938409280        2.1394400411        1.1501033819
 O         -2.4641328955       -1.4503656274        1.8210149843
 H         -3.3352086561       -1.2047398644        1.4559427249
 H         -2.1966011793       -0.7177104110        2.3896154883
 O          4.8949039352        2.1433834542        1.7154313589
 H          3.9442161608        2.3245686613        1.5783245586
 H          5.1305838339        2.5625645482        2.5441276323
 O          0.0706329686        3.2377398408        2.7405544727
 H          0.3003522573        3.6966241264        3.5486611095
 H          0.9219796725        2.9630495438        2.3186807293
 O         -3.0939489662       -1.8385986169       -2.4559697598
 H         -3.4831981029       -0.9573262867       -2.4813368880
 H         -2.3326292253       -1.7541651964       -1.7937454348
 O          2.2212937519        2.5504216711        1.3370901975
 H          2.0781294047        3.0787699641        0.5277915534
 H          1.9195596909        1.6460230789        1.1000200701
 O          0.9957971163        0.2375051872        0.3983229144
 H          1.6527808109        0.0030432508       -0.2959687403
 H          0.1316812819        0.1147792737       -0.0159640865
 O         -1.1970145261       -1.3101657980       -0.6059254366
 H         -0.4369205321       -1.9087507909       -0.5777723356
 H         -1.6355178996       -1.3631765200        0.2705711466
 O          4.7209823721        2.7425508415       -1.3627085499
 H          4.9533404410        2.1601397261       -0.6341544352
 H          4.2845615820        2.2099694224       -2.0314641653
