  191
       -320.31867304
 H          2.1675598589       -0.9238981134        0.4869137633
 C          1.1933167755       -1.4060362058        0.4351658002
 H          1.3159152734       -2.4848738956        0.5634482066
 C          0.5799563463       -1.1264687221       -0.9339463216
 H         -0.3890588305       -1.6137585254       -1.0217584672
 H          1.2475686292       -1.5526947207       -1.6835958912
 N          0.4186585851        0.2986944867       -1.2099152282
 H         -0.4806520907        0.6252431273       -0.8770342000
 H          1.1345671611        0.8184803658       -0.7144091167
 O          0.4463688953       -0.8613290053        1.5054880458
 H         -0.4984952103       -1.1274407996        1.4047925821
 O          2.0051453011        3.5857317553       -3.8782657136
 H          2.9571832521        3.4948513918       -3.7416276558
 H          1.7295283550        4.3161440371       -3.2809120847
 O         -3.4942285014       -1.6217146946        4.7756181920
 H         -4.2339033298       -1.8371477107        4.1789281760
 H         -3.2014410080       -0.7304195984        4.5251089073
 O         -1.1641443188        2.8967937685        4.7051838000
 H         -1.5997286277        2.0485392591        4.3919095125
 H         -1.8203587227        3.3633143403        5.2209561562
 O         -1.7618291459        3.8502010944        0.5853193878
 H         -2.6982813983        3.8674503292        0.3381341682
 H         -1.2621562178        3.6762035434       -0.2433966953
 O         -0.3344432789        3.2233743761       -1.5615562436
 H         -0.7214477581        2.6848787985       -2.2810910171
 H          0.5318027438        2.8273685388       -1.3544438426
 O          0.0800069440        3.9845565678        2.5596969501
 H         -0.4062399223        3.6480872647        3.3390524986
 H         -0.6028148725        4.1178789896        1.8788745790
 O          2.4454708007       -2.9046156887       -2.8831620259
 H          2.9922849094       -3.1854889237       -2.1273960743
 H          2.9229259372       -2.1293923024       -3.2486489961
 O         -1.4701533747        1.2941790157        1.3636547330
 H         -1.5834900710        2.2528736008        1.2235017445
 H         -1.9763879200        0.8860784972        0.6408945207
 O          3.6402039613       -0.6200452302       -3.6475201049
 H          2.8594231090       -0.0282756107       -3.6856468976
 H          4.2750682138       -0.1854216515       -3.0702437158
 O          1.2402091506        5.3910296349       -2.0218769374
 H          0.4595244995        4.8382249481       -1.8457212497
 H          1.7373479352        5.3957309076       -1.1939565510
 O          0.8607303441       -3.9004325545        2.4940204140
 H          0.1112269633       -3.8040419627        3.0985802205
 H          1.4918671710       -3.2099494855        2.7555726591
 O          1.1333597307        1.4753468644        5.3182769171
 H          0.7632924288        0.5883770930        5.1899844455
 H          0.3754710337        2.0733705143        5.2036253970
 O          0.1440236682       -0.8938783851        4.1977868210
 H         -0.3540462923       -1.7353997082        4.2253877916
 H          0.4684893302       -0.8360914857        3.2787374992
 O         -2.0569784818        0.6201516955        3.8433192391
 H         -1.2655210591        0.0743848779        4.0401369009
 H         -1.9797586066        0.8265520156        2.8807843729
 O          1.4287441017        0.9148977412       -3.5804938570
 H          1.5869120089        1.8757308616       -3.6030212700
 H          0.9745003184        0.7050729023       -2.7149441392
 O         -4.2569228444       -1.1484678228       -3.3248304771
 H         -3.2765379009       -1.1144271294       -3.3179068739
 H         -4.4726181265       -2.0929549186       -3.4619870329
 O          0.2025842884       -0.0159505246       -5.7316240685
 H         -0.7277275707        0.1798135195       -5.5989697916
 H          0.6775776444        0.3439810659       -4.9431158547
 O         -2.4838970079       -2.7910650159       -1.0582450625
 H         -1.9359379524       -3.4162516459       -0.5403881180
 H         -2.2747927267       -3.0099441313       -1.9873813546
 O          1.3701322525        1.7300666377        1.6449372064
 H          0.6689544972        1.0705712058        1.5096098874
 H          0.9280636115        2.5296840350        1.9777678465
 O         -6.9945912926       -2.6233763789       -0.7168522020
 H         -7.4428616088       -2.9259397399       -1.5066700323
 H         -6.2133161954       -3.2175961724       -0.5940165878
 O         -2.6328212795        0.4726580595       -0.9300190742
 H         -3.0909268746        1.0639316087       -1.5429661349
 H         -2.3644344516       -0.2896538095       -1.4598897906
 O         -1.5018140175       -2.9855364987        3.6979542412
 H         -2.2224629521       -2.6197325232        4.2643059724
 H         -1.6964504070       -2.6028961485        2.8181027305
 O         -2.0793567591       -1.6441931093        1.4079511913
 H         -2.2877406101       -1.9321347385        0.5090291607
 H         -2.7369858115       -0.9434238746        1.5969056268
 O         -5.2487021994       -0.5570849747       -0.9296670524
 H         -4.8127723366       -0.7974492315       -1.7801148919
 H         -5.9593850250       -1.2091131590       -0.8046256581
 O         -4.7717132490       -4.0400904346       -0.5385169171
 H         -4.5806919541       -4.4409395921        0.3170893622
 H         -3.9935352913       -3.4587169954       -0.7190534294
 O          2.2682562743        2.5059694752       -0.9231420372
 H          2.9223600127        2.7177593056       -1.6203895715
 H          2.2537270106        3.2789258184       -0.3163599663
 O          3.8546680861        0.7119122441        0.2540990567
 H          3.1500899112        1.3272340841       -0.0581632747
 H          4.3271465114        1.1911874162        0.9664064847
 O         -0.9571886453       -4.4004552553        0.4248635481
 H         -0.4341031932       -4.6890688903       -0.3461339391
 H         -0.3089554328       -4.1984176752        1.1202533668
 O         -4.4381310331        3.7347288456       -0.1019229351
 H         -4.7982069007        4.5742129733       -0.3864340611
 H         -5.0058904401        3.0325034459       -0.5128658583
 O         -4.1151785881        1.6442246780       -3.0584720739
 H         -4.3123953250        0.7420853237       -3.3533946593
 H         -4.9165941796        1.9697160778       -2.6363938725
 O          4.3561135036        2.9658160025       -2.5662530084
 H          4.8106132297        2.1101928687       -2.5405941326
 H          4.8015143727        3.5182132324       -1.8936858739
 O         -7.4535431492        1.4291622105        1.3550861230
 H         -7.4151664687        0.4411732816        1.4515114288
 H         -8.2748599396        1.6921988540        1.7695792076
 O         -4.9965416944        2.3406218989        2.2546957992
 H         -5.9193586473        2.1130243456        2.0500293890
 H         -4.7036051622        2.9406720041        1.5523374170
 O         -1.6162213634       -0.8568702310       -3.1393046949
 H         -1.3703307126        0.0709248851       -3.3021512461
 H         -0.9360922725       -1.4160203356       -3.5576463450
 O         -1.3975172467        1.8282488037       -3.6055307883
 H         -0.9922230899        2.2884791556       -4.3777214537
 H         -2.3452049651        2.0147352958       -3.6009936068
 O          4.0901846071       -3.4119145696       -0.7454283457
 H          4.0942962428       -2.8302469401        0.0416054092
 H          4.9136194887       -3.1837931768       -1.2043171603
 O          6.2667304318       -2.0534242568       -1.8520951441
 H          6.4220298296       -2.2806528335       -2.7692668465
 H          5.9593016965       -1.1181896057       -1.8514766905
 O         -3.3678653371       -4.3831318437        1.8720698833
 H         -3.0642256705       -4.4093989864        2.7843895985
 H         -2.5594325537       -4.4628878142        1.3392395007
 O          7.0380284136       -2.0041749724        0.8484888740
 H          6.1045078778       -2.0708533863        1.1270909118
 H          7.0092973358       -2.0792174307       -0.1161201698
 O          5.5650534600        4.0104771485       -0.4012962213
 H          5.1776202217        4.2863308617        0.4372994079
 H          6.2028342150        3.3102845104       -0.2022473598
 O          2.4247122921        3.9482717859        4.1699988683
 H          1.6240100189        4.1269860930        3.6608473583
 H          2.2222475159        3.1872513630        4.7236959007
 O         -7.4907704247       -1.2002121917        1.6448041847
 H         -6.7635950375       -1.5891779145        2.1626670972
 H         -7.5052709114       -1.7025980731        0.8185027305
 O          5.1413168143        1.6388780793        2.3925112785
 H          4.4593341496        1.2221481346        2.9603720950
 H          5.9557713443        1.1181625182        2.4410158068
 O         -5.1307894418       -2.2213059889        2.6496453120
 H         -4.6436570663       -2.9692926492        2.2769253343
 H         -4.7598908668       -1.4125479047        2.2251044534
 O          2.1782268268        4.6746966984        0.6148421942
 H          1.4498620891        4.6283471072        1.2436060953
 H          2.9972863802        4.5980392840        1.1473849364
 O         -4.1403498489       -0.0526700767        1.5096759970
 H         -4.4340339723       -0.1070346335        0.5811488696
 H         -4.3812451916        0.8356906415        1.8572970447
 O         -6.1260560402        1.9239579196       -1.0169954175
 H         -5.7775269984        0.9982023556       -1.0077779177
 H         -6.7675267722        1.9208902673       -0.2895651960
 O          5.5099730215        0.5345467323       -1.7506560139
 H          6.2825833004        0.9855789200       -1.3708264950
 H          4.8436244787        0.5430187729       -1.0101138782
 O         -0.0336364219        2.9124178952       -5.6122140276
 H          0.7134266603        3.2995794084       -5.1242676082
 H          0.3229576169        2.1569143393       -6.0932807835
 O          4.4070513392       -1.7558500631        1.3360209555
 H          4.1696801136       -0.8755340578        0.9935090327
 H          3.8322933131       -1.9280414802        2.1042664733
 O         -1.6778530251       -4.0681539342       -3.3024023030
 H         -1.0360339833       -4.6151055900       -2.8281175146
 H         -1.1406171004       -3.5377283983       -3.9118610337
 O         -4.4949827792       -3.8468200246       -3.3897285210
 H         -3.5663930268       -4.0835213544       -3.5299166504
 H         -4.7144497550       -4.1569888024       -2.5021285457
 O          0.5848329394       -4.8148562102       -1.7888241407
 H          1.2297336469       -5.2181957544       -1.1737140719
 H          1.0933673498       -4.1394328225       -2.2595416595
 O          7.3951618338        1.8544632346       -0.2480218027
 H          7.4362999766        1.3414530501        0.5870456242
 H          8.2872519963        2.1311941412       -0.4565525668
 O          7.5274569757        0.2992505783        1.9475580526
 H          8.2913108211        0.1909474305        2.5137402433
 H          7.3653499513       -0.5925515760        1.5223993545
 O          0.1763962836       -2.4096760183       -4.4558247843
 H          1.0126944722       -2.5984582650       -4.0057197387
 H          0.3551215825       -1.7110226304       -5.1142531262
 O          4.3091839499        4.2208600578        2.2029029392
 H          3.7632410528        4.2976391351        3.0053926788
 H          4.6780703961        3.3229520344        2.2601896456
 O          2.2754270254       -5.3063384088        0.2521487373
 H          3.0180322858       -4.7502114063       -0.0276032172
 H          1.9437021680       -4.9473037325        1.0835999050
 O          2.9018433721        0.6240960743        3.4410667424
 H          2.3677161661        1.0067473642        2.6881122108
 H          2.4520987226        0.9689496981        4.2316374158
 O          2.7346903199       -2.0112613576        3.4309966475
 H          2.9626249770       -2.2948828207        4.3161669005
 H          2.6933065662       -1.0190757029        3.4566171362
