  147
       -244.15350983
 H          0.0985666771        0.7178090715        0.4869371598
 C         -0.0034386044        0.1399524706       -0.4346716813
 H         -1.0616731119       -0.0445196010       -0.6144093348
 C          0.7098995707       -1.2017111566       -0.2824055150
 H          0.5969244460       -1.7737094184       -1.2021673149
 H          0.2617033649       -1.7403076071        0.5481778435
 O          0.4609772132        0.8811021848       -1.5358070276
 H          1.3511668325        1.2401563851       -1.3487850391
 N          2.1421229710       -0.9967420311       -0.0172580661
 H          2.2543864300       -0.2487827150        0.7057471519
 H          2.6146667772       -0.7146266698       -0.9130231045
 H          2.5787081959       -1.8740879738        0.3536666071
 O          3.0691001466        1.5946367315       -0.7377530241
 H          3.0880703897        2.4270491496       -0.2187025682
 H          3.6049452892        1.7979088704       -1.5192919613
 O          3.5882580929        3.9144023253        0.5514568167
 H          4.4868906566        3.7357824644        0.8464331904
 H          3.6718793147        4.3908131624       -0.3184440889
 O          0.1983741578        0.1498962114        3.6253058472
 H         -0.6209784935        0.3389199944        3.1153335885
 H          0.1247351195       -0.7849706189        3.8644929926
 O         -5.4011117232        2.6821671432       -0.7874366081
 H         -5.3891543125        2.8800548526        0.1703510615
 H         -5.7249871152        3.4664229867       -1.2309742847
 O         -2.5172136820        3.2106398090        2.0987240367
 H         -1.8258954866        3.3390862185        2.7886824643
 H         -2.0969832174        3.4742055380        1.2597977351
 O         -3.8850034724       -0.1384409556        4.2702487011
 H         -4.6684630588        0.1584669330        3.7192509906
 H         -4.0401621314        0.1650624475        5.1641901593
 O         -1.9446018754       -1.8284976576        1.2101723276
 H         -2.4316021461       -2.2325073442        1.9554772114
 H         -1.9214767974       -0.8815308358        1.4426796083
 O         -0.0536860577       -0.2006822122       -4.8034279280
 H         -0.1731043710       -1.0026206242       -4.2657719317
 H         -0.6939044711        0.4399426283       -4.4453166563
 O         -2.0915429904        0.5851844386        2.3419215213
 H         -2.7112911445        0.3493577122        3.0553996185
 H         -2.2866012298        1.5209561147        2.1193472568
 O          1.7193292955        3.2529953197       -2.6509545509
 H          0.8106637176        3.5653976416       -2.7611939312
 H          1.8326610920        2.4871506331       -3.2355389729
 O         -1.5612306983        1.4620983627       -3.2582963364
 H         -2.3797961165        1.0291883880       -2.9608209201
 H         -0.8755116510        1.2323427592       -2.5999042692
 O         -3.7548463927       -0.2683883496       -2.9828757784
 H         -3.3900445683       -0.9305228158       -2.3560981555
 H         -3.6949005748       -0.6582304020       -3.8563093048
 O          5.6664603505       -1.4042621199       -1.5536976642
 H          5.5174445164       -2.3370927499       -1.3278931469
 H          4.8592145760       -1.1245531473       -2.0353424645
 O         -1.0932329135       -4.2754385258        0.3640806253
 H         -1.9654067665       -4.6361250448        0.1358507531
 H         -1.2765238983       -3.3523163419        0.6106259470
 O         -0.6397257294       -2.2443131853       -3.0698500247
 H         -0.2366761785       -3.1056390967       -2.9043908484
 H         -1.4185326156       -2.1952142662       -2.4914334392
 O          2.1812603243        0.9805385685       -4.2072975129
 H          2.6477221926        1.1015920462       -5.0344236238
 H          1.3221221733        0.5169857275       -4.4366492128
 O         -3.7296948043       -4.5410883318       -0.3633506001
 H         -4.1970354067       -3.9990916855        0.3253102801
 H         -4.3481786944       -5.2138775880       -0.6469584667
 O         -0.5175722760       -2.5477562727        4.0661862184
 H         -0.3904249325       -2.9080174657        4.9450721362
 H         -1.4642057243       -2.6488585708        3.8615476287
 O          0.9415472813       -4.1019644525        2.2666026177
 H          0.2708837300       -4.3838889684        1.6290149147
 H          0.4873982878       -3.5266204723        2.9035847038
 O         -3.2219904780       -2.6415788679        3.4567265381
 H         -3.9861929524       -2.9932538711        2.9767480354
 H         -3.5135233907       -1.7867021526        3.8311847446
 O          4.2285363471       -1.1599392630        2.6834248059
 H          4.3364814976       -0.5849094508        3.4421559505
 H          4.5711146532       -0.6569029463        1.9186562412
 O          0.4157311253       -4.5267810285       -1.8377423727
 H         -0.0878909357       -4.4321540767       -0.9980278061
 H          0.3655006884       -5.4497639401       -2.0869400722
 O         -4.9486973133       -2.9079094536        1.3152652067
 H         -5.8443868378       -2.8623424501        0.9389263512
 H         -4.5805175930       -2.0263095166        1.0951100959
 O         -4.3696177084       -0.3999463018        0.5703079024
 H         -5.0212232291       -0.3478814869       -0.1591544875
 H         -3.6552888921        0.2093690170        0.2920431206
 O          3.2480140937       -0.7271124567       -2.4433604181
 H          2.8684689690       -0.0899707399       -3.0843230047
 H          2.9751238464       -1.6288274759       -2.7229634586
 O         -0.9664054163        4.0188563081       -2.8936280816
 H         -1.2854954055        3.1138881070       -3.1225477870
 H         -1.2500030404        4.6087983930       -3.5913111615
 O         -2.8725691461        1.4226825423       -0.6498944049
 H         -2.1914093456        2.0965433466       -0.4703406925
 H         -3.6728763045        1.9084819588       -0.8895498640
 O         -6.0120017996        0.0565246792       -1.5019910550
 H         -6.0291094897        1.0059485390       -1.3037820816
 H         -5.3111384512       -0.0477518132       -2.1744589584
 O          1.0851730368        3.2228413628        1.3127659710
 H          1.8529167520        3.7694486089        1.0921626899
 H          1.4533554876        2.3214037616        1.4503999855
 O          2.7766090937       -3.3105599438       -2.6946999728
 H          1.9621608245       -3.7406291949       -2.3966686165
 H          3.4931260887       -3.6602971525       -2.1455614900
 O          3.8337182007        4.7510384717       -1.9138656656
 H          4.5393145287        4.1450129704       -2.1789234224
 H          3.0141915616        4.3483337410       -2.2614162858
 O          7.3734787460        0.6131300129       -2.2608495995
 H          6.9008822595       -0.2030840839       -2.0236336477
 H          7.9086920666        0.4127442820       -3.0287287847
 O         -1.1446527681        3.4674147371       -0.1960060832
 H         -1.0115599032        3.8376472361       -1.0813934630
 H         -0.2619459662        3.3852072714        0.2149129841
 O          4.7595045865       -3.9049449058       -0.8018663170
 H          4.2120611656       -3.7028135417       -0.0132181477
 H          5.2757837318       -4.6833952963       -0.5923674902
 O          5.4522170529        2.4824795769       -1.8022410822
 H          5.7433063444        2.7256572553       -0.9150142274
 H          6.1366985950        1.8741726386       -2.1302424336
 O         -0.3467836052        3.1442418247        3.6265519801
 H          0.2321511752        3.3113653119        2.8575868951
 H         -0.1277705656        2.2592178674        3.9364168250
 O          3.1779138510       -3.1467706206        1.2233945182
 H          2.4032946028       -3.5904209183        1.6394667150
 H          3.6078846828       -2.6213841993        1.9216858403
 O         -5.1562656920        3.2913027779        1.8624837563
 H         -5.4880931427        4.0795576595        2.2934892492
 H         -4.1799354371        3.2870872388        1.9941527175
 O          4.9877916365        0.1973618539        0.4645544554
 H          5.3677522299       -0.3927081867       -0.2211601785
 H          4.2325598528        0.6624965827        0.0297194684
 O          4.3201437377        1.8285717817        3.2314116870
 H          4.0862802869        2.5934149159        3.7591678313
 H          4.9466790396        2.1373916888        2.5529619179
 O          2.1251768636        0.8582431115        1.9642365913
 H          2.9458902113        1.1101359113        2.4293534362
 H          1.4926843607        0.5363996901        2.6471900461
 O         -2.7880862274       -2.1628982261       -1.3489754368
 H         -3.1976545705       -3.0374562450       -1.2488685719
 H         -2.5538660824       -1.8904430663       -0.4392973242
 O          6.0429380695        2.4977342763        1.1199902688
 H          5.7808411154        1.5772391546        0.8514902831
 H          6.9872335717        2.4826426779        1.2783325925
 O         -7.0922049845       -2.2239051725       -0.2220347603
 H         -6.8115013589       -1.4637763888       -0.7554124837
 H         -8.0099899006       -2.0725468032        0.0050937667
 O         -5.7054472513        0.6672822620        2.6221300404
 H         -5.2883368026        0.2363768899        1.8428839809
 H         -5.6475816664        1.6181365127        2.4446814331
