  249
       -422.56420060
 O          4.7511380542        3.5524871971        1.4385274288
 H          4.3300390884        3.8026985596        2.2785774146
 H          5.6907623364        3.3885051464        1.6052895562
 O          5.4515860734       -3.6219032795        2.1209094630
 H          6.1933377764       -3.5034680969        1.5051084045
 H          5.4843411088       -2.8193341651        2.6858630296
 O         -3.4374087470        1.2903841221       -3.9410923488
 H         -2.5933378850        0.8368086782       -4.1690667524
 H         -3.4517886106        1.3356359142       -2.9563794545
 O         -1.7032401722        2.6811579767        0.9004082010
 H         -1.4270174423        2.5844370491        1.8388587097
 H         -2.1821038658        3.5199350100        0.7862119210
 O         -0.8858630101        2.2886873860        3.3954623458
 H         -1.5792064743        2.4336151314        4.0887194211
 H         -0.5221673451        1.4040417133        3.5849802578
 O          3.4634606135        3.8439658131       -1.0428518242
 H          3.8534058572        3.9246705112       -0.1606051596
 H          4.1516274513        4.0961595715       -1.6735574995
 O          4.5030072011        1.2836938203       -1.0532712929
 H          5.4511052091        1.4991323211       -1.0583685837
 H          4.0501742453        2.1110849811       -1.2794754671
 O          4.9995628107        1.6997756321       -4.4694483589
 H          4.1972110377        1.8575692654       -4.9859386004
 H          5.0799895268        2.4295723081       -3.8271225804
 O          0.0478075816        2.8200646652       -4.8677366945
 H          0.4809765397        3.3041820194       -4.1477651012
 H         -0.7983863889        3.2743762859       -4.9855722324
 O          3.0055497282       -0.8381344334       -1.6984937124
 H          3.5833950095       -0.1071366754       -1.4024650400
 H          3.3566189919       -1.0468053968       -2.5812389779
 O          7.0247635299        2.2237529035       -1.0395666238
 H          7.5510689097        1.4395106785       -1.3358796379
 H          7.2357980862        2.3937840354       -0.1095426230
 O         -2.4792230708        3.7871237648       -4.2741871682
 H         -3.1364798658        4.4295124528       -3.9480802957
 H         -2.9503499370        2.9299138680       -4.3198312296
 O          3.3927716390       -2.7729455941        0.0154524335
 H          3.1220089910       -2.0999692752       -0.6539218389
 H          2.6157121002       -2.9421189656        0.5766936959
 O         -1.5099828358        3.5263823163       -1.8113887084
 H         -1.8018511022        3.6491118650       -2.7474983092
 H         -1.9427496245        4.2213425397       -1.2988302434
 O          2.9531143494       -4.7440796750       -3.3941704904
 H          2.3164292125       -4.1858088311       -3.8566280072
 H          2.4526578867       -5.1389259499       -2.6603458176
 O          6.0902433782       -1.7953999354       -2.0261963827
 H          5.7661179817       -2.7326666254       -1.9813460035
 H          5.6077370193       -1.4287246838       -2.7855419258
 O          7.3291374705        2.4780779585        1.7080148768
 H          8.1289469445        2.7944055490        2.1282045222
 H          7.3330081325        1.4985940529        1.7988119513
 O         -0.5480506584       -5.7434904625        0.3001952989
 H         -0.2715803465       -6.2036295307        1.0957089335
 H          0.2676405799       -5.6211272839       -0.2341518396
 O          2.7682275546        1.2354022572        4.1416161313
 H          3.3272475204        0.7550816934        4.8061308739
 H          3.0663240310        0.8905019935        3.2767726089
 O          7.3564583158       -0.2028905162        1.7702965798
 H          8.0922105039       -0.7689739474        1.5286954449
 H          6.6122781303       -0.4900947798        1.1847160954
 O         -4.0860189277        1.7966212841        1.7234973824
 H         -3.2072706886        1.8302202474        1.3024193676
 H         -4.6811340433        1.3539018320        1.0886482886
 O          2.2331175361        1.6413545531       -2.7152260179
 H          1.8556038705        2.5452084599       -2.6539356785
 H          2.4476634281        1.5069220312       -3.6563004968
 O         -3.4361710292        1.6556337672       -1.3087856294
 H         -4.2601932447        2.1806478054       -1.2777885664
 H         -2.6899743226        2.2855492949       -1.2879130015
 O         -1.8997400299       -2.4270574160       -1.3796861266
 H         -2.4594676484       -1.8105253211       -0.8627459096
 H         -2.2505507307       -3.3208549047       -1.1728073421
 O         -5.8751585834        0.6042279451        0.0830376251
 H         -5.5747709454        0.0370491225       -0.6459439193
 H         -6.3852602994        0.0328822618        0.6939309304
 O          2.9279885598       -1.2280874248        2.9222566320
 H          2.8533131432       -1.6152272311        3.8163911308
 H          2.4691559828       -1.8479482406        2.3431096967
 O          1.3709730438       -3.1822798940        1.7473584711
 H          1.5371395144       -4.1320203167        1.9626793967
 H          0.4456733938       -3.1501636433        1.3942148332
 O          5.6562771398        3.7537507615       -2.7569541231
 H          6.2441539911        4.3306306752       -3.2448614453
 H          6.2219801434        3.2387040608       -2.1410012844
 O          8.1582020502        0.0438711551       -1.9724406002
 H          8.1923035436        0.3365815379       -2.8995773567
 H          7.4954574018       -0.6646371634       -1.9676015797
 O         -1.5502480511       -0.6161730338        2.0461009756
 H         -2.1507825326       -0.8281676476        2.7920027544
 H         -1.2291536530       -1.4718551451        1.7327719759
 O         -1.5979617325        5.6345346368        2.3763776275
 H         -1.6260242154        6.4655744996        2.8510654504
 H         -0.7247677623        5.2421231737        2.5648539042
 O          1.7248380517       -5.1117983793       -0.9518091860
 H          1.4900128980       -4.1669387744       -1.0186058833
 H          2.5022966934       -5.1757336831       -0.3707777635
 O         -2.8085025940        2.6301626175        5.1637996868
 H         -3.2597549976        3.3833401230        4.7463895983
 H         -3.4330713181        1.8917636802        5.0551730406
 O         -7.9602940746       -1.3944501002       -1.7605644847
 H         -8.2378577613       -2.1056323484       -2.3379979163
 H         -6.9622231914       -1.4267745925       -1.7379417083
 O         -1.1656412042       -3.2747128077        1.2201325776
 H         -1.1134540659       -4.1272670024        0.7456053443
 H         -1.5789417631       -3.4987620387        2.0851185971
 O          4.0109508180       -5.4963991392        0.6183059291
 H          4.4096433090       -4.7603931792        1.1153588704
 H          4.5796043910       -5.6228987622       -0.1489877079
 O         -4.3115045495       -3.4175856141       -2.8977088404
 H         -3.5725621282       -3.1998070870       -3.4846184156
 H         -3.9647218946       -4.0560751358       -2.2571792360
 O         -5.3792264125       -1.1836294345       -1.9674208606
 H         -4.9461053655       -2.0412357388       -2.1946570692
 H         -5.4372148988       -0.7020420666       -2.8136138446
 O         -3.9684993074       -4.6824315686        1.5921626952
 H         -4.4266294521       -3.8258615325        1.6172676860
 H         -3.3877083022       -4.6952030302        2.3608337554
 O         -7.5171225470        1.2750723219       -2.5800070573
 H         -7.7282581384        0.4048012786       -2.2053820038
 H         -7.0259406021        1.0731981057       -3.3903642629
 O         -2.9382919429       -4.8304650662       -0.8672506183
 H         -3.3908194560       -4.8097254817        0.0074544569
 H         -2.2048135631       -5.4458561834       -0.7502073534
 O         -5.7225414017        3.0646405547       -1.5602963697
 H         -6.3753366134        2.4344506121       -1.9257616497
 H         -6.1552521686        3.5254905132       -0.8352564785
 O         -4.9486217263       -2.1250864142        1.6276353206
 H         -5.8389140000       -1.7616296771        1.7273643079
 H         -4.4826828047       -1.6151973519        0.9337525882
 O          7.6374808491        0.8462747169       -4.5414622736
 H          6.7171097676        1.1556729480       -4.5686990401
 H          7.7879873571        0.3535852248       -5.3482266814
 O         -7.3013988091       -0.7046495746        1.9217109012
 H         -8.1741755579       -0.7102232153        1.4953687729
 H         -7.3296554555       -0.0086956350        2.6030634822
 O          0.7622026258       -2.6000353477       -1.2907080168
 H          1.0153656945       -1.6868216622       -1.5058905557
 H         -0.2134025449       -2.5792338400       -1.1962318850
 O          3.3110778542        3.7849123016        3.7929524849
 H          3.6205046673        4.1405956024        4.6260806813
 H          3.1140108173        2.8226321911        3.9524332226
 O          5.2585980449       -0.9528339808        0.4045327554
 H          4.6580293538       -1.7131943785        0.5526712877
 H          5.5109822886       -1.0259930344       -0.5359183349
 O         -5.7328298933        0.1145207462       -4.3511299863
 H         -5.7363776257       -0.3494063471       -5.1880561272
 H         -4.8759120993        0.6092751430       -4.3021849412
 O          0.7490956999        4.3463716662        2.9228279845
 H          0.2612513537        3.5453390629        3.2153159409
 H          1.6575291924        4.2599177954        3.2574930000
 O          0.2843058971       -2.5839582087        4.2066524197
 H          0.1662759078       -1.6158471961        4.2335355523
 H          0.6804872298       -2.7706343321        3.3339220054
 O         -5.4565032232        4.9568183477        1.1304452610
 H         -5.0920995793        4.9248608729        2.0313067395
 H         -6.1326397987        4.2582831836        1.1194236277
 O         -7.1335928288        2.7964312555        1.0258446864
 H         -6.6034926045        2.0781238323        0.6303898231
 H         -8.0035325840        2.7285154338        0.5666362494
 O         -9.4701587278       -0.5137461564        0.2707711553
 H        -10.3067365152       -0.9790568458        0.2930491012
 H         -8.9509826195       -0.8846714113       -0.4748565980
 O         -3.8450306365        4.1727820928        3.1675377624
 H         -3.0233775452        4.6092532415        2.8885315471
 H         -3.9245730013        3.3427957161        2.6622146722
 O          0.7742252637       -2.9934373795       -3.9785438803
 H          0.8329945101       -2.8945112557       -3.0046990783
 H         -0.1807007505       -2.9276086679       -4.1742620607
 O         -3.0231407202        4.9741535510        0.0584700059
 H         -3.9622098373        4.9562642451        0.3622000095
 H         -2.5537762302        5.5411028419        0.6828709275
 O          2.7400978109       -2.5822720072        5.2836330805
 H          1.7812220036       -2.7139124141        5.1501994495
 H          3.1674457349       -3.4006739660        4.9846867349
 O          0.6845661979        3.7748311682        0.2937213334
 H         -0.2228111929        3.4102990902        0.3219336497
 H          0.8457636216        4.1286459231        1.1873212663
 O          7.4949215204       -2.9115172478        0.3399937787
 H          7.1014180670       -2.5124963087       -0.4468996565
 H          8.0843031929       -3.5989427416        0.0291409212
 O         -1.8810398302       -2.3621812112       -4.0401626942
 H         -1.8561310804       -2.2956542336       -3.0578319023
 H         -1.7287293030       -1.4691425020       -4.3718901726
 O          2.4001239401        1.4287661108       -5.3957106614
 H          2.1961940097        0.4866127885       -5.5270365438
 H          1.5792103747        1.9223040356       -5.5311476288
 O          4.9700800151       -4.1384761245       -1.6908547287
 H          4.3968732494       -4.3719485364       -2.4463464493
 H          4.3669772416       -3.7288494118       -1.0369662194
 O          1.8919100778       -5.6994473678        2.3608613361
 H          2.5427062652       -5.9520656032        1.6900146131
 H          2.4150913512       -5.5383261111        3.1605024823
 O          0.3613522655        0.1348409969        4.4643109653
 H          0.1589307822        0.2913843174        5.3877600778
 H          1.2738586599        0.4832064111        4.3126137070
 O         -4.6962831212        0.9135505749        4.1700995870
 H         -5.6451485642        1.0919941271        4.1914975486
 H         -4.4185866323        1.1959897536        3.2718712302
 O         -7.3192432297        1.5853530503        3.4126214477
 H         -8.0304147614        1.9664265168        3.9270542466
 H         -7.2295224602        2.1370672036        2.5989600233
 O         -3.2937982592       -0.6704743756        0.0735220571
 H         -2.6635901205       -0.5076950775        0.8161926647
 H         -3.3871517951        0.1595610366       -0.4271484562
 O          4.2446104201       -0.2748094799        5.7154361716
 H          3.6892152445       -1.0457092704        5.9004091630
 H          4.9180687132       -0.6112457470        5.0976673843
 O         -2.1029804852       -3.7841789142        3.6630992980
 H         -2.6831776613       -3.0381996302        3.8889487765
 H         -1.2516979589       -3.5630468581        4.0804696936
 O          5.5218812608       -1.3133964096        3.5157264679
 H          6.2006179696       -0.8036119368        3.0489825495
 H          4.6524794731       -1.0948081940        3.1143228046
 O         -4.1860129445        5.0843745966       -2.6490668814
 H         -3.8284898651        5.4111268983       -1.8171538289
 H         -4.8262581426        4.3966717167       -2.4043814480
 O          3.9083800713       -4.8108539320        4.0714502549
 H          4.4675832589       -4.4388811124        3.3638420083
 H          4.4780318803       -5.3637543853        4.6067906938
 O          3.9031859004        1.0149833520        1.6689786595
 H          4.3062723143        1.8905456672        1.5029980262
 H          4.4119352404        0.3628876424        1.1467578741
 O         -9.2113821501        2.1785115802       -0.4663208166
 H         -9.4309659159        1.2835481960       -0.1617262878
 H         -8.8299324218        2.0761919791       -1.3475798622
 O         -3.4621929284       -1.4397876357        3.7403713566
 H         -4.0570844150       -1.7337683674        3.0152409254
 H         -3.9056587120       -0.6702376128        4.1361728454
 O          4.4056104891       -0.9178417568       -3.9954275326
 H          3.7067996632       -1.1276481531       -4.6370231181
 H          4.6296344719        0.0221955197       -4.1287244667
 O          1.0748511539        4.0160841473       -2.5241082982
 H          1.6980318161        4.3024001129       -1.8417789157
 H          0.2126560611        3.9090764328       -2.0763799124
 O          2.1275101889       -1.3082534800       -5.4795258812
 H          1.5893558651       -1.8820938974       -4.8729934976
 H          2.1366938569       -1.7586580044       -6.3240278187
 O         -1.0242367984        0.3164035270       -4.3885011276
 H         -0.5884030986        0.1229682551       -3.5307429667
 H         -0.6112172667        1.1426519138       -4.6965636824
 O          0.2716242941       -0.0122159092       -2.1059186387
 H          1.0694484938        0.5375174152       -2.3042587284
 H          0.1930822481        0.0779676447       -1.1436146354
 O          0.9457077533       -0.0643315414        0.5776076989
 H          1.7985788315        0.3749051472        0.6618017624
 H          0.3606058311        0.2992365191        1.2441895612
 O         -0.4502369217        6.1772763741       -0.2911434917
 H          0.0245830918        5.3344632225       -0.1052554936
 H         -0.3124879105        6.3542684594       -1.2206408154
