  192
       -320.54627780
 H          4.4916776770        0.9513671469        0.6993858377
 C          3.4129354715        0.9375820603        0.8595843855
 H          3.2143969534        1.0318402980        1.9262252383
 C          2.8355409156       -0.3584633396        0.3172127394
 H          3.2625737596       -1.2104491411        0.8373544114
 H          3.0654990971       -0.4261223516       -0.7429590777
 O          2.8015665342        2.0500809901        0.2318394517
 H          3.0284845835        2.0024601448       -0.7227928525
 N          1.3720751709       -0.3458683811        0.4899609151
 H          0.9788581774        0.3979234253       -0.1346014272
 H          1.1660265913       -0.1845405606        1.5051701597
 H          0.9756600136       -1.2561354901        0.2143629081
 O         -1.6369109370       -0.7419224015        1.4461041460
 H         -2.1853315431       -0.4395344353        2.1889734453
 H         -1.2966373167        0.0798602173        1.0288487877
 O         -0.4548422714       -2.8654659379       -3.7759860631
 H         -0.0249771194       -3.6867476099       -3.5146412838
 H         -1.3951707511       -2.9712802888       -3.5522355194
 O          0.7622810317       -2.4623002793       -1.1604767599
 H          1.1879459466       -1.8910123257       -1.8384253066
 H          0.6973620570       -3.3427191154       -1.5839824996
 O         -6.0793972378        3.2828297412       -0.7116337774
 H         -5.3602645805        3.7994818688       -0.3146193870
 H         -5.7866282480        3.1287130854       -1.6221256140
 O         -6.5353236229       -1.1316284069        3.8999024102
 H         -6.6305804390       -1.6611259084        3.0842158056
 H         -6.7332818017       -0.2220250654        3.6274276207
 O          4.7373051904        2.6485448164        3.6252650259
 H          5.2639525025        3.0431335980        4.3209912457
 H          5.2712143361        1.8903609344        3.2817882079
 O          2.7321635130       -3.4489064302        0.5897405862
 H          1.9509251279       -3.1639562264        0.0895896071
 H          3.1258669428       -4.1607328633        0.0756414960
 O          0.7619798573       -0.9124553390       -5.1172724314
 H          0.1580938450       -1.5591410213       -4.6893330205
 H          0.8804143199       -1.2100570585       -6.0188334309
 O         -0.5811711571       -5.0468996500        0.2463928214
 H         -1.4803071856       -4.8820575604       -0.1108270726
 H         -0.6502671219       -5.7656077155        0.8751357349
 O          0.3246827547       -3.5744324800        4.1760986916
 H          0.2788154156       -3.3274275272        3.2201072744
 H          1.2688436161       -3.6195647609        4.3552877006
 O         -6.6555752840       -2.4918712044        1.5565317986
 H         -7.1696012220       -3.2972939511        1.5062411165
 H         -5.7217314880       -2.7354795507        1.4099572127
 O         -4.7292602956       -0.7949595491       -0.3658657982
 H         -4.4453216053       -1.5175490905        0.2278822207
 H         -5.5907849557       -0.4698494659       -0.0615158313
 O         -3.0212625066       -3.5789887155       -3.1700880490
 H         -3.3310042803       -4.1028972371       -3.9092775681
 H         -3.7019345323       -2.8542335419       -3.0436789126
 O          2.4116713200        5.4540321146        0.0304613903
 H          3.3375440696        5.3040784497        0.2634816676
 H          1.9146130024        5.1529619759        0.8085152388
 O          1.2235279706        3.8452830306       -1.7063970892
 H          0.3025126956        4.1364792538       -1.5805729677
 H          1.7591769633        4.4401612856       -1.1297108844
 O         -1.9338201695       -2.0072970486       -0.9347828891
 H         -0.9998930064       -2.2612988271       -1.0413109668
 H         -2.0105541915       -1.6220913088       -0.0473264221
 O         -1.5460716241        0.0917246454       -2.4999247379
 H         -1.6177471811       -0.2489587494       -3.4144964118
 H         -1.8108409470       -0.6608526208       -1.9240861786
 O         -1.2328900192        3.0938166154        2.5348674873
 H         -2.0134623319        3.7090022873        2.5548187486
 H         -1.1324505311        2.7231956672        3.4218757736
 O         -0.6200820301        1.6492862399        4.8654198763
 H         -0.5203382449        0.7255615292        5.1359702569
 H          0.2804877606        2.0019472027        4.8111034994
 O         -4.0180376028       -2.9172740094        1.1305842174
 H         -3.6087915693       -3.4971126687        0.4637158491
 H         -3.3973529172       -2.8406016867        1.8769015878
 O         -3.7616511674        4.8348775056       -0.2662064063
 H         -2.8982811612        4.4935838467       -0.6010012693
 H         -3.8599617210        5.7168744322       -0.6249184556
 O          2.1487696036       -0.8889996892       -2.8140864171
 H          1.8298138937       -0.0223947264       -2.4818810092
 H          1.8193866799       -0.9418259578       -3.7271170492
 O         -3.5510087863        1.5362614424       -0.4120549660
 H         -3.9676897949        1.8901239133        0.3999657965
 H         -3.8642110540        0.6049315229       -0.4603642769
 O         -2.4958187646       -2.7695834648        3.3884481969
 H         -3.1520137923       -2.4443209464        4.0300383846
 H         -1.9562465159       -3.4349316038        3.8242969327
 O         -3.4340077072        4.4846176351        2.4363234990
 H         -3.5174899375        4.8203160319        1.5285004002
 H         -3.9813283039        3.6777821500        2.4377155688
 O          6.2164469682        0.6519619033        2.7045377084
 H          6.5845526735        0.7274085729        1.8091578904
 H          5.8901558488       -0.2586233170        2.7815222178
 O          1.2634796374        3.7288368176        1.8510720669
 H          1.5179923918        3.0882396969        1.1699600965
 H          0.3037009612        3.6332354911        2.0061369758
 O          5.5271578730       -0.0877705413       -3.2074588249
 H          6.4410737046       -0.0361396131       -2.8875287399
 H          5.2305963213       -0.9950977125       -3.0527347008
 O         -0.5957096744       -1.1350544274        4.6806549005
 H         -1.3540781516       -1.2922733101        4.0986398082
 H         -0.1852700322       -2.0242274254        4.7621569191
 O          5.3134210125       -1.9780651265        2.6976610261
 H          4.3714784985       -2.1770713916        2.9457046756
 H          5.8612609540       -2.5784087052        3.2033360053
 O          8.1079381832       -0.4630634619       -2.1837534426
 H          8.9665284339       -0.3849398123       -2.5986274360
 H          7.9373630204       -1.4232651737       -2.0427088593
 O          4.4960587955        3.9937790648        1.1712284991
 H          3.7977814262        3.3732386350        0.8944488908
 H          4.6956139203        3.7389756799        2.0841974952
 O          2.0183741587        2.2749436286        3.9756143942
 H          1.7572008789        2.9056717241        3.2661832821
 H          2.9832291579        2.3782568799        4.0377103079
 O          6.7963217274        0.6306125180       -0.0088729759
 H          7.4854752996        0.3585886117       -0.6324250481
 H          6.5030872863        1.5191231066       -0.3442067818
 O          1.3410718974       -0.1555747567        3.1360438255
 H          1.6160166344        0.7175853833        3.4961797639
 H          0.5924505614       -0.4675628981        3.6863741900
 O         -3.0436521694       -4.6715066917       -0.7423544046
 H         -2.9349891534       -4.1329462607       -1.5661637546
 H         -3.6246299784       -5.3980480438       -0.9702214089
 O         -7.0472408739        1.3018968533        2.6823708415
 H         -7.7443025115        1.9338624736        2.8603982418
 H         -7.1180995516        1.0462476407        1.7345772001
 O         -4.1976054167       -1.3729230366        4.9888617211
 H         -5.1075006001       -1.3076862144        4.5743319142
 H         -4.3355885685       -1.3740894686        5.9363303228
 O         -4.7167889462        0.3776389973       -4.4706884073
 H         -4.6725769088        1.1289943743       -3.8237579883
 H         -5.4252525864        0.5776224100       -5.0818305632
 O          0.8105042378        1.1058736443       -1.6932204068
 H          0.9025720321        2.0723240319       -1.7219302121
 H         -0.0823889074        0.8473122257       -2.0031278503
 O          5.5494909258       -1.7338185716       -0.0120427051
 H          5.9540066603       -0.8381489258       -0.0442319163
 H          5.4734340902       -1.9497553791        0.9332382128
 O          3.8196059408        1.7271495425       -2.2424180085
 H          3.3581664744        2.1414785384       -2.9872234288
 H          4.4185026686        1.0495661246       -2.6262130026
 O         -1.0480612657        1.6071741928        0.3689780150
 H         -1.1296609795        2.1212951403        1.2010075675
 H         -1.9616142609        1.5438381408       -0.0001001746
 O          0.7771599796       -4.9355357072       -2.1815743303
 H          1.7365617737       -5.0730249711       -2.0723129617
 H          0.3574620046       -5.2530857881       -1.3677985030
 O          0.0843078537        1.7896407351       -5.0468135180
 H          0.8898723605        2.2719237689       -4.7982918992
 H          0.3297301446        0.8489944146       -5.0273919675
 O         -1.8802288809        2.5669101996       -3.3986279010
 H         -1.1917049721        2.4749335050       -4.0877100862
 H         -1.8948296989        1.6823063722       -2.9765594504
 O          3.4613676237       -4.9374215531       -1.6983697360
 H          3.7753304434       -4.0465120304       -1.9941178116
 H          4.0909933299       -5.5771744539       -2.0295060604
 O          0.1379059003       -2.7470136533        1.6478578016
 H         -0.1238961854       -3.5031260189        1.1009665464
 H         -0.5986938475       -2.1083244308        1.6495848213
 O         -6.9028343206        0.8854063142        0.0552602303
 H         -7.6680565535        0.7285992936       -0.4982235401
 H         -6.5554216776        1.7813984000       -0.1952909123
 O         -4.4922281583        2.0353670466        2.0605663694
 H         -3.9042408518        1.4639586989        2.5914260098
 H         -5.3982935127        1.8280677600        2.3413371148
 O          5.9181214540        2.9321829802       -0.9112862860
 H          5.5514860083        3.4588381331       -0.1786571072
 H          5.1653002387        2.6567221870       -1.4631447598
 O          4.2881550165       -2.4779087417       -2.2814841576
 H          3.5033119478       -1.9353180921       -2.4845659966
 H          4.5948560712       -2.2071666069       -1.3922071846
 O         -2.8697792637        0.4709228764        3.5404107005
 H         -2.2197781805        0.9622611648        4.0616547710
 H         -3.3579955963       -0.1164842550        4.1490493153
 O          2.7867295779       -2.5166362796        3.1677407974
 H          2.2938540497       -1.6753309794        3.1586383963
 H          2.6156928349       -2.9393740028        2.3062233277
 O         -2.1236411511       -0.3661158872       -5.0828652161
 H         -3.0652901692       -0.1557008097       -4.9729235310
 H         -1.7158043339        0.3935379924       -5.5069793397
 O         -4.9014976140       -1.8383928262       -2.8528644370
 H         -4.8123650723       -1.4639836172       -1.9544354763
 H         -4.8281319399       -1.0884090548       -3.4661141291
 O         -4.4835819187        2.3887782498       -2.7805027271
 H         -4.1477171074        2.0450246851       -1.9197590254
 H         -3.6955408983        2.7739401810       -3.1955573857
 O         -1.4199186059        3.9018639132       -1.1708097455
 H         -1.6300381952        3.5015204726       -2.0466928237
 H         -1.1988716877        3.1476874001       -0.5939434063
 O          2.2654911639        3.1680867628       -4.0373033528
 H          2.6677553912        3.9125463356       -4.4846450747
 H          1.8527210023        3.5182204144       -3.2120738115
 O          7.2322783886       -2.9508001215       -1.7380146738
 H          6.6063023173       -3.1761557358       -2.4303590607
 H          6.6875697642       -2.6464767586       -0.9824865741
