  600
      -1018.72217561
 O         -0.5705853266       -0.0393480742       -1.8281888507
 H         -0.6632360988       -0.7341634852       -1.1671154662
 H         -1.2698754378        0.6020252609       -1.6239793095
 O          4.4869889081        2.6946765506        0.1608994800
 H          4.6239798857        3.5865462722        0.5334921869
 H          3.8201554453        2.8413611464       -0.5493627554
 O          3.5552047404        1.3580083169        2.2546468907
 H          3.8189591444        1.9035334957        1.4818641751
 H          3.9177529830        1.8088118455        3.0389251258
 O          3.7099905331       -3.4072321148       -0.4860967442
 H          2.9473034005       -2.9037578725       -0.8165985266
 H          3.9010550242       -4.0931146567       -1.1397189089
 O         -2.5870648109        1.4620201796       -0.8922739328
 H         -2.8104587286        0.8122473736       -0.1949820970
 H         -3.4196050607        1.5892363317       -1.3863801793
 O         -0.8586686966        0.6253239946        1.2695413746
 H         -0.5771858476        1.2022231358        0.5494590310
 H         -1.6301072949        1.0409591286        1.7038538802
 O          3.0278248478        4.1585529815        3.4548089541
 H          2.9123283665        5.1028801382        3.6396489802
 H          2.4991978703        3.6611617028        4.1023689115
 O          3.1352782994       -2.4244086971        5.4642822591
 H          3.8209897883       -2.1364319486        6.0942788600
 H          2.9137690129       -1.5884708589        4.9709240221
 O         -3.0541793850       -1.7587685775       -1.4841157785
 H         -3.6380066668       -2.5288740806       -1.3741000546
 H         -3.1549470408       -1.2308431119       -0.6737676147
 O         -3.4573940652       -0.3725733221        0.8214964619
 H         -4.3776173046       -0.1011602124        0.9738034397
 H         -3.0502703915       -0.5891229948        1.6774100716
 O          0.2023462033       -5.9299609004        1.9505105407
 H          0.8630605808       -6.2501968982        2.5913503755
 H          0.5479233962       -5.0575434413        1.6435831748
 O          6.0145266851       -2.2349017905       -1.5822842538
 H          5.7954724497       -2.5395963992       -0.6838752485
 H          5.2024770479       -1.8486550116       -1.9573796184
 O          0.7123374373        5.1089546457       -1.5380508229
 H         -0.0883594872        5.2924702966       -1.0110323152
 H          0.5653986302        5.6177550762       -2.3584600265
 O         -4.6927221285       -2.0358972160       -7.1063388436
 H         -5.2998388563       -1.3091144001       -6.8858899733
 H         -3.8045969908       -1.7370861006       -6.8270574392
 O         -4.4691281414       -4.0187188210       -1.0666171129
 H         -5.3241044229       -3.8455760139       -1.5039393844
 H         -3.9697375086       -4.6610710356       -1.6072332663
 O         -2.0668912623       -1.1241350543        3.0694757168
 H         -1.9199836917       -2.0716719651        2.9472663451
 H         -2.2702217113       -1.0260213198        4.0170502076
 O          0.6016708575       -1.0540192141        2.7523637943
 H         -0.3607697464       -0.9271183735        2.8673038317
 H          0.7935110481       -1.9945358122        2.7481855415
 O          1.5740114838       -0.1039170188        0.2770208202
 H          1.3226268246       -0.4447325709        1.1505219498
 H          2.5538069612       -0.0461961114        0.2680296221
 O         -0.9161464409       -1.8375295588        0.3871127011
 H         -0.8603070474       -0.9507237566        0.8020869485
 H         -1.7281789799       -2.2480090685        0.7263394008
 O         -1.8612880321       -1.5581186740       -3.9166858906
 H         -2.1209509198       -2.4906638665       -4.0345058241
 H         -2.2935557006       -1.2692209227       -3.1003721637
 O          0.4259182262       -2.1579197953       -6.4378623700
 H         -0.5372896857       -2.0122181684       -6.4674631536
 H          0.6733458310       -1.9727456214       -5.5027456310
 O          0.9675666469        1.8097399400        2.8245825114
 H          0.4137187346        1.1895846656        2.3210198667
 H          1.8920879057        1.6648218871        2.5547979574
 O         -3.8899801392        4.0580662969       -5.7518740714
 H         -3.4493747881        3.7142727132       -4.9425294330
 H         -4.6186970561        4.6036949307       -5.4164957212
 O         -1.6274268989        3.4570543623        0.5817132188
 H         -2.0423858514        2.8053817946       -0.0152063139
 H         -0.6794309204        3.2925723150        0.5227192563
 O         -4.5661761348        2.8810437345        0.7732939634
 H         -5.0953487049        2.0681163013        0.6489950243
 H         -3.7717245472        2.5855827165        1.2704457387
 O          2.6759690033       -3.4510889763       -3.7127899648
 H          3.2166231819       -3.2185779666       -4.4790327129
 H          3.1600345918       -4.1893417107       -3.2774809228
 O          4.0863358025       -5.3224437428       -2.4699621819
 H          4.9800841354       -5.1765919184       -2.8104298703
 H          3.7309319277       -6.1261358006       -2.9150524769
 O          1.4738200598       -4.9153482210       -1.3350242576
 H          1.6076814104       -4.2205691178       -1.9854074052
 H          1.2881422586       -4.4545501100       -0.4851927393
 O         -5.0669024871       -0.6152834400        6.3752409111
 H         -5.3476100851       -1.5585633489        6.3675671640
 H         -4.8414886557       -0.3802594516        7.2888235056
 O         -0.9995587522       -3.4743453491       -1.7384765995
 H         -1.2997292532       -4.1665753749       -1.1283308566
 H         -1.6735164903       -2.7679149936       -1.6865694958
 O          7.0501461495        2.8925986288       -0.7274827379
 H          6.1152680586        2.6837315465       -0.5181686518
 H          7.5614689673        2.5926670634        0.0450218994
 O          3.6597980193       -1.2507213101       -2.4203819250
 H          3.0790685985       -0.4641070582       -2.5450684795
 H          3.1915909593       -2.0002043834       -2.8221075313
 O          3.7039125608        2.6126376147        7.6133614917
 H          3.4747614418        2.7880802942        8.5252278000
 H          3.3474697429        3.3618023797        7.0953443289
 O          1.3595558579       -2.1504112691       -1.4592004403
 H          1.3597185767       -1.3547940549       -0.8865153915
 H          0.4679932110       -2.5383447867       -1.4050948409
 O          2.2863035740        8.1843973766        1.1580728646
 H          2.7116527089        8.9950590200        0.8828508744
 H          2.4252135386        7.5221432928        0.4180968146
 O          2.7668249857        5.0108476153        6.5680746986
 H          1.9170447975        4.9500214106        6.0831797003
 H          2.5603451728        5.4541998579        7.3897587008
 O          5.4911722197       -4.0023771065        6.4047435870
 H          5.3501555983       -3.2006337335        6.9248765513
 H          6.2293496791       -3.7977952395        5.8105442420
 O          4.4040420814        5.0021297205       -5.9185596193
 H          3.5096595674        5.3815149685       -5.9313925152
 H          4.3368520487        4.2414599754       -6.5128917574
 O          0.8115458351       -1.2825899884       -3.9953089774
 H         -0.1332140850       -1.0706333306       -3.8814579965
 H          1.0931579657       -1.6058025164       -3.1194294107
 O          8.2060584967       -1.0594234122       -3.0436071073
 H          7.2623300892       -1.0825747024       -3.2722828178
 H          8.4118414750       -0.1076794353       -3.0078158118
 O          4.3119638465        1.9824196059        4.8096631640
 H          3.3921717193        2.0536808587        5.1143000218
 H          4.5998679282        1.0546375656        4.8784278074
 O         -3.7120682825       -3.4733820246        3.8708974995
 H         -3.8246759919       -4.4187321959        3.9934141071
 H         -3.3947482894       -3.3759332561        2.9450145627
 O         -3.9938317954        0.0533777900        8.8217596264
 H         -3.1207688810       -0.3692969938        8.6394019915
 H         -4.2267177274       -0.1723083065        9.7211696957
 O         -0.4432622017       -6.5450482797       -1.9350498537
 H          0.2261510657       -5.8320996159       -1.7991614090
 H         -0.2519437251       -7.1818551116       -1.2098535169
 O          2.9372593783       -1.9952947512        1.7871006536
 H          3.5332494929       -1.5443097511        1.1777432964
 H          3.4927377814       -2.4503059074        2.4331367956
 O          8.1189864499        1.6764117499       -3.0380997062
 H          7.7843129527        2.1166295791       -2.2412846651
 H          7.5789708927        2.0040892849       -3.7693272777
 O          0.2316315776       -2.1289722921        5.4923434996
 H          1.1741738915       -2.3097179538        5.3829983006
 H         -0.2286444956       -2.6001388347        4.7581070645
 O          1.1703627138       -4.3608765007       -7.5710274753
 H          0.6508036879       -4.3743377895       -8.3753806770
 H          0.8625456895       -3.5551469192       -7.0673774986
 O          4.0848006607       -5.6805354104        4.7048696386
 H          4.5271750773       -5.1312420896        5.3737962698
 H          4.7211491464       -5.7364603037        3.9749725019
 O          6.3917814187        2.7065502739       -5.0752446772
 H          5.4732303159        2.5639471668       -4.7498454180
 H          6.4188126823        3.5974854099       -5.4255244788
 O          6.9773658695        0.0669291916       -0.5763016769
 H          6.6090677929        0.6943194870       -1.2145484459
 H          6.8151790614       -0.8194492619       -0.9568553714
 O          2.0060033950        4.3288145221        1.0083686652
 H          2.4463368424        4.1188760438        1.8533835135
 H          1.2333080555        4.8627173975        1.2596274267
 O          1.8237100224       -4.1280462542        3.6372594344
 H          2.3354242035       -4.3786710567        2.8403353948
 H          2.3714732001       -4.4234686597        4.3689322906
 O          2.4367865318       -0.1950224226        4.3685117904
 H          1.6473316960       -0.3829649497        3.8096315012
 H          3.1303924976        0.0306195360        3.7385356755
 O         -3.8895447327       -7.3123895585       -4.4074223415
 H         -3.4966647010       -6.9058204818       -5.1919278848
 H         -3.2901082075       -8.0145288464       -4.1005718487
 O          6.3425066154        5.3419571083       -1.5360412058
 H          6.7462413726        4.4654744515       -1.3867398385
 H          5.7696374913        5.4813126249       -0.7611724255
 O          0.2031192367        0.7672225099        8.1068102254
 H          1.0832541149        0.3756261582        7.9281675422
 H         -0.4348727548        0.0480645247        8.2693328446
 O          5.5916933642        3.1836411739        2.7317114473
 H          4.7880960362        3.6334723186        3.0346488087
 H          6.1926264440        3.8563505127        2.3827614260
 O         -5.5216079708       -2.2652736891        0.8651596306
 H         -5.5524220085       -1.8334539051        1.7421861928
 H         -6.3255076302       -2.7999605747        0.7870305552
 O         -2.6146470936       -1.3888008007        5.6603401473
 H         -2.7518380171       -2.3557844179        5.6972895544
 H         -3.4949584107       -0.9857502900        5.7920054784
 O         -7.5773371080        3.6001482204       -3.3705916586
 H         -8.4935106866        3.8673118864       -3.3109638601
 H         -7.2134539321        3.6369928987       -2.4556280293
 O         -5.8561318723        3.3771790415        3.0481249048
 H         -5.3855469470        3.3173785686        2.1862408634
 H         -5.6205024861        2.5551845463        3.5058927297
 O         -5.1191650825        6.3935098719       -1.8938863067
 H         -5.5895263685        6.4039574983       -1.0517971692
 H         -4.5299462989        7.1863215648       -1.8871772440
 O          0.7285655238        2.3590486190       -0.1384756680
 H          1.1664998681        1.4851023221       -0.0671713133
 H          1.3253185003        3.0314066772        0.2621636671
 O         -0.3252959785        2.6557795494       -2.5759222452
 H          0.0326711660        2.6104992888       -1.6698558242
 H         -1.2165304088        3.0161690327       -2.5403272537
 O         -1.1316566987        1.0059638915       -4.5517446446
 H         -0.7567326695        1.2977271046       -3.7020670830
 H         -2.0304614893        0.6918592553       -4.3560076732
 O         -3.8095298944        0.4536256093       -4.3073051923
 H         -4.0351042480        0.7557008590       -5.2073350121
 H         -4.2537621799       -0.3978403638       -4.1457149408
 O          4.7150211270       -3.2426466133        3.4306603702
 H          5.6281884810       -3.2128471125        3.7779197975
 H          4.1508292293       -3.0255467391        4.1957444040
 O         -3.0611299163       -3.2204982330        1.3383289530
 H         -3.9115352448       -2.9080234149        0.9725268164
 H         -2.7828370468       -4.0147515654        0.8451768792
 O         -6.7535361142        1.0068828691       -3.8818743783
 H         -5.9261884809        1.1331865368       -3.3722849208
 H         -7.1813083682        1.8761570574       -3.8613451406
 O          2.9612890200       -6.9074168621       -0.1942592937
 H          2.9900698031       -6.2732705421        0.5653721170
 H          2.6827285004       -6.3482295883       -0.9377248017
 O          5.9487059392       -2.4023600652        1.1702550537
 H          5.3623289991       -2.7881511785        1.8374592264
 H          6.1149285158       -1.4892803438        1.4567308676
 O         -5.7653155950       -0.8142544833       -1.4275032020
 H         -5.5671081310       -1.3477676002       -0.6406650376
 H         -5.3994936266       -1.2710759285       -2.2016999071
 O          0.3385695678        7.4246325237        3.9995596749
 H          0.0140646875        8.1714322771        3.4878136991
 H          1.3073024141        7.4099373508        3.9246656662
 O          7.6301082407        4.7967225267        1.7448550552
 H          8.0707212407        3.9315524420        1.7525533552
 H          7.4733823984        5.0063282996        0.8197460755
 O          5.5988033399       -7.1437325936       -0.1209983832
 H          4.6208973483       -7.0672863109       -0.2548734254
 H          5.8696280003       -7.9501567916       -0.5568153533
 O          4.1562239878       -0.1976400911       -0.0590200835
 H          4.0296927512       -0.7203781108       -0.8729862743
 H          4.4785796410        0.6562071659       -0.3755754396
 O          3.2940691728       -4.9946190612        1.5760008116
 H          4.1669542487       -5.2034799157        1.9647690008
 H          3.4642304735       -4.3132333924        0.8814950825
 O         -3.0433959679        2.9304315894       -3.4759704962
 H         -3.4078154285        3.3561407871       -2.6832348601
 H         -3.4622257193        2.0603425985       -3.5552158292
 O          1.6875236984        3.6772671472       -4.0825849498
 H          1.5212988170        4.4411854453       -4.6580189190
 H          0.8887062622        3.4960913506       -3.5511322961
 O         -1.6681568370        5.3907552541       -3.1836369279
 H         -2.1722556369        6.0905966382       -3.6250997023
 H         -2.2239272246        5.0565676906       -2.4740110558
 O          4.7895219792       -1.3812547098        7.3536068882
 H          5.4285053582       -0.6567822367        7.2105673269
 H          3.9566405527       -0.9058426324        7.5280750868
 O         -2.7774871976        1.9278031256        2.4420898721
 H         -3.4528551990        1.5652628767        3.0489151860
 H         -2.1939750127        2.5201611807        2.9415133847
 O          8.1887356109        2.0953052174        1.6331582596
 H          7.3882419235        1.6252295920        1.9395025526
 H          8.8476192699        1.4038661470        1.5023145482
 O         -3.5576972255        8.5191930406       -1.7704683970
 H         -2.5757576477        8.5005468280       -1.7087081226
 H         -3.8550135529        8.6447340059       -0.8482944346
 O         -4.7374860854        1.0343395539        3.9641902353
 H         -4.1354740028        1.0361583110        4.7253384027
 H         -4.9642254529        0.1060105366        3.7610280794
 O          2.5870603423        0.1918801830        7.0974962523
 H          2.4437995637        0.1252977757        6.1343531381
 H          3.0009181151        1.0658033105        7.2382071776
 O         -1.4853787728        5.9863247929       -0.2194538882
 H         -2.1720456839        5.3154045735       -0.3681547666
 H         -1.1049277937        5.8386939216        0.6687133541
 O         -1.8496345481        4.7622106855        7.1504077048
 H         -2.4576058805        4.0638232861        7.4370800399
 H         -2.3810469076        5.4243459684        6.6827216487
 O         -4.3726492370       -6.1399683245        3.1427439755
 H         -3.5245894784       -6.5122624979        2.7845723576
 H         -4.7978713066       -6.8624356969        3.6040544565
 O         -5.0285233873        1.6386570859       -1.9164527368
 H         -5.5906765205        2.3023730743       -1.4841086760
 H         -5.3057903355        0.7471365784       -1.5988393211
 O          0.2733567809        5.1284939392        5.4471330335
 H          0.1918761453        5.9959348430        5.0234625825
 H         -0.4177841067        5.0789421252        6.1249709257
 O         -3.5278961373        4.3734345122       -1.2472976589
 H         -3.9294452766        3.8418812606       -0.5318227964
 H         -4.1645943805        5.0783927576       -1.4783525443
 O         -7.8088825248       -1.5955046316        4.8476294179
 H         -7.5680705520       -2.2114053863        5.5443178028
 H         -7.8088904580       -0.7077241090        5.2322188170
 O          2.1645370429       -4.4399085824        6.9626953101
 H          2.4787547775       -3.6854079015        6.4235958706
 H          2.9600980353       -4.8838378421        7.2591231769
 O          7.2382963280       -3.1609566388        4.3535144142
 H          7.5797160710       -2.2571168611        4.1818772485
 H          7.6534171183       -3.7080840400        3.6738096776
 O         -0.1904924537        5.5217143256        2.0581606307
 H         -0.0404053370        6.2223749348        2.7108924512
 H         -0.5347663390        4.7424161771        2.5537218124
 O          0.9381236215       -3.5946890032        0.9344751439
 H          0.2186218613       -2.9485033838        0.7305675493
 H          1.7124803193       -3.0532348162        1.1978297503
 O          1.6680129968        5.5598952804       -6.0382527779
 H          0.9323741883        6.1831116003       -6.0406141894
 H          1.4137155877        4.8586074628       -6.6782383902
 O         -3.2655652209        7.2991316054       -4.3599887358
 H         -4.0922244871        6.8645037615       -4.5943144952
 H         -3.4535314687        7.9015272617       -3.6279746703
 O         -0.8413019058        3.4900576024        3.6121169949
 H         -0.1421767547        2.8635689500        3.3160729931
 H         -0.4560089279        3.9481046831        4.3785573963
 O         -7.6635140201        1.0048455480        2.9644064591
 H         -7.4455278693        1.0568296291        3.9176455115
 H         -8.1055580361        0.1637376601        2.8044936563
 O          7.3820568876       -5.1038374463       -0.8590244996
 H          7.1558449269       -4.9234951966       -1.7831382610
 H          6.7446384250       -5.7697989000       -0.5612089070
 O          3.2888510324        7.1969266722       -3.3545115365
 H          3.8126685626        7.6698417322       -3.9989415420
 H          3.6346318617        6.2644251756       -3.3444393957
 O         -8.0780977890       -1.1982046303       -2.8947496722
 H         -8.2450642843       -1.6421845484       -3.7336725310
 H         -7.5446192457       -0.4149519548       -3.1387311415
 O         -5.7670342379        5.4942592058       -4.3754949204
 H         -6.4346460508        4.8077376002       -4.2296300519
 H         -5.5630828973        5.8258305052       -3.4836194539
 O         -5.0179164162       -1.9528093001       -3.8151102306
 H         -5.8347798716       -2.1297403228       -4.3087659233
 H         -4.3825092607       -2.6616200521       -4.0333804921
 O         -5.9387463089        0.6499242714        0.9660967988
 H         -6.3983921176        0.7857197686        1.8148662395
 H         -6.6242560137        0.3595063198        0.3387085517
 O          3.5130522402       -2.6652527142       -7.8498718854
 H          2.7215357782       -3.2116652682       -7.9319851184
 H          3.8782036768       -2.8592640501       -6.9786038057
 O         -7.7805920834        4.9725852020        2.1631473486
 H         -7.2523415706        4.2953504610        2.6310527886
 H         -8.3884463812        4.4716575802        1.6123179533
 O         -4.1450125963        1.5954862640       -6.7480490095
 H         -3.2856723100        1.4533671045       -7.1696118538
 H         -4.1386219547        2.5367209243       -6.4640366532
 O          3.5850407800        0.0445261793       -7.5039241170
 H          3.5918578164       -0.8478385677       -7.8883863511
 H          3.3206103658       -0.1104995042       -6.5552077403
 O          1.2209535673        1.6115050625       -5.7797138350
 H          1.3705799176        2.3244304351       -5.1271114428
 H          0.5853766160        1.0243793340       -5.3580699873
 O         -4.4151579051        8.2173745016        0.8084823010
 H         -3.7711646595        8.1272557429        1.5323478001
 H         -4.9020999017        7.3800929270        0.7986146338
 O          7.1532894047        1.8202430985        4.4379787692
 H          6.4767723973        2.2368400307        3.8512893722
 H          7.8252205734        2.4865620930        4.5752289142
 O         -2.6230631560        1.5167294666        5.5243468818
 H         -2.7249674675        1.7865574215        6.4484447752
 H         -1.7174555084        1.1470280124        5.4003667768
 O          4.7612710711        5.3152893147        0.7104092777
 H          4.8714115673        5.6734033676        1.6049456614
 H          3.9161763885        5.6348592404        0.3442715264
 O         -3.3294294531        4.9495487961        2.0248732201
 H         -3.4669321710        4.4764609983        2.8645749749
 H         -2.6784974191        4.4168177741        1.5246290972
 O         -3.1257211258        6.3435692631        5.2064051118
 H         -4.0886977702        6.3257667615        5.0739685541
 H         -2.7857232322        6.8402220414        4.4379784568
 O         -0.4222987534        8.5351785761        1.3959466101
 H         -0.7158076920        8.6491012116        0.4814653127
 H          0.5297651448        8.3485419333        1.3260225709
 O          5.5651464261        6.1156233390        3.2646372998
 H          5.4993641770        5.5163888959        4.0493033999
 H          6.4680635802        6.0208341789        2.9444477368
 O         -6.6578194328        3.5934818129       -0.8670445767
 H         -7.3083325644        3.2063967685       -0.2438201211
 H         -6.2130157592        4.3109527650       -0.3801315618
 O         -1.6562639861        4.8250373983       -7.3079294116
 H         -2.6122295631        4.7507347362       -7.2201513089
 H         -1.3267547492        4.3365952919       -6.5064025092
 O         -8.2757311760       -0.0217197877       -0.2783942165
 H         -8.5239845615       -0.6557021106        0.4042496847
 H         -8.1929633756       -0.4975501461       -1.1167220842
 O         -2.1651274173       -1.3566036295       -6.5050664913
 H         -2.1309998161       -1.2821921082       -5.5210858803
 H         -1.9721739461       -0.4538824882       -6.8602156633
 O         -0.9160509516        8.2487383096       -1.4191794449
 H         -1.1336248554        7.3893326194       -0.9997581194
 H         -0.3764773709        7.9954295858       -2.1876583103
 O         -2.5748807356        7.4138284192        2.7290962237
 H         -1.7937654360        7.7521702087        2.2613786080
 H         -2.7513300655        6.5129570616        2.3805313770
 O          3.8212024876        2.2393369181       -4.6542528713
 H          3.6815815449        2.3671062841       -5.6135797530
 H          3.1253975861        2.7895107334       -4.2425844013
 O          6.7705538162       -2.1499725383       -6.8738183647
 H          6.6743586067       -1.1808373224       -6.7942659938
 H          6.6342116577       -2.3649661934       -7.7966781221
 O          4.3966752012        4.8262192037       -3.2458973106
 H          4.5889887810        4.7700022815       -4.2015166070
 H          5.2183855948        5.0194205151       -2.7350372405
 O         -8.5194942669       -1.6360737039        2.1058393775
 H         -8.3627193478       -2.4667306535        1.6319326901
 H         -8.4579311942       -1.8420494548        3.0466012048
 O          3.5997971329        2.7537064252       -7.3302147475
 H          2.7250770022        3.0863987570       -7.5784274791
 H          3.6116534027        1.8269705814       -7.6144060695
 O         -0.2635358469       -6.0015273711       -5.8208769793
 H         -0.1913199550       -5.2944859622       -5.1227527435
 H          0.3062233988       -5.6751563717       -6.5326984669
 O          0.5600489916        7.0588182577       -3.4113078348
 H          0.1144136599        6.9781044111       -4.2686082777
 H          1.5094732999        7.1819515312       -3.5657131296
 O          2.0095796709        0.8077122550       -2.6052560830
 H          2.2089465660        1.6949964040       -2.2717320485
 H          1.1069414893        0.5833618950       -2.3300702038
 O         -5.7404233914        5.7198011790        4.4749828317
 H         -5.6421577304        4.8943797676        3.9563299947
 H         -6.3698231956        6.2552747624        3.9914859982
 O         -2.9110507662       -5.6672298879       -2.5018171678
 H         -3.3199443380       -6.3464541809       -3.0662639420
 H         -1.9994814259       -5.9668306765       -2.3045219304
 O         -3.5173198724        3.7842353100        4.4979477601
 H         -3.1529641809        4.6159996495        4.8480841373
 H         -2.9685332170        3.0371559195        4.8112304643
 O         -1.7094155068       -1.1045313067        8.1177038445
 H         -1.3135649594       -1.9741859867        8.2845593927
 H         -1.9380894255       -1.1278290397        7.1515398347
 O         -5.5968146999        3.3491085219        6.1069688271
 H         -6.0284081585        4.2067176745        6.0775315692
 H         -4.8926315875        3.4168497194        5.4137729823
 O          5.2692971779        4.4994847463        5.3706894980
 H          4.4719939414        4.8323503382        5.8011106145
 H          5.0574301202        3.5739755775        5.1432714467
 O          2.7598810749        6.5064574690       -0.7201080474
 H          3.0010288471        6.9050824875       -1.5670437612
 H          1.9864638636        5.9122945294       -0.9186720263
 O          2.9571882169        6.9352852281        3.4580413560
 H          3.9200433074        6.8950561562        3.5383351581
 H          2.7780560548        7.3268123615        2.5820304384
 O         -1.8204865644       -5.7259659572        4.7571238980
 H         -0.9665382669       -5.9192365802        5.2219844604
 H         -1.9917490146       -6.4954095087        4.2099710329
 O          5.7200446716       -0.6890782092       -4.1531939435
 H          4.7746611433       -0.8826464647       -4.2815461877
 H          6.0130490061       -0.2729956667       -4.9791434913
 O         -0.8153212871        6.9560509828       -5.8529681123
 H         -1.1180960716        6.2558312612       -6.4728894236
 H         -1.6244804978        7.2823871855       -5.4413532446
 O          9.0194917387       -0.5288349032        1.0886821265
 H          8.3425607769       -0.2549969101        0.4419505243
 H          9.3146984984       -1.3714761351        0.7161503138
 O          3.0186111390       -7.2581629456       -3.8942635692
 H          2.1209203294       -7.6282506134       -3.8931591374
 H          3.1077342889       -6.7800182839       -4.7377819908
 O          8.8846966961       -2.5717849502       -0.7320542098
 H          8.3802127090       -3.3880423052       -0.8056394212
 H          8.6960787253       -2.0628947871       -1.5368186526
 O         -0.7729260112       -3.5602274746        3.5029220976
 H         -1.2918645665       -4.2883847987        3.8834601750
 H          0.1333375420       -3.9092488842        3.4018507606
 O         -2.0472461110       -8.8867048737       -3.1201686794
 H         -1.1708184087       -8.6201902012       -3.4907506657
 H         -2.0351772991       -9.8403799395       -3.0561297289
 O         -1.9035337957       -5.2547480021        0.1375181405
 H         -2.2502059592       -6.1215688771       -0.1622165904
 H         -1.1399148366       -5.4243846735        0.6969238615
 O          5.2251517784       -0.5606706042        4.4123620403
 H          5.6932133753       -0.3632588662        3.5873630066
 H          5.9036293610       -0.7896645203        5.0485714759
 O         -5.3574704529       -7.2432367912       -1.1846760468
 H         -5.5411445007       -6.6995551828       -1.9566572519
 H         -5.6172234072       -6.7050704998       -0.4150793715
 O         -5.6132310633        5.6478423998        0.7068297616
 H         -6.3865059454        5.5348054403        1.2951124276
 H         -4.8228153399        5.3120258505        1.1849122873
 O          0.6526207704        3.4007306159        7.7791946736
 H         -0.1874145167        3.8694290825        7.7523414708
 H          0.4461269953        2.4955496748        8.0620899085
 O          6.0721766896        0.2890367274        1.8938549799
 H          6.3284931734        0.2662228630        0.9443996495
 H          5.1572279562        0.6219234705        1.9066196658
 O         -7.0091899809       -3.5212491951       -1.9018536945
 H         -6.9310272444       -4.1276961469       -2.6480698432
 H         -7.2854915771       -2.6475276485       -2.2475266023
 O         -5.4387645407       -1.4714855231        3.4183369246
 H         -4.8282474280       -2.1848209476        3.6995160605
 H         -6.2834621679       -1.6181096904        3.8726629877
 O          0.5062730887       -6.2919025734        5.7931478780
 H          1.0677438578       -5.6126362794        6.2072250178
 H          1.0245014602       -6.6622005192        5.0635042028
 O         -7.3374591615       -2.4079986607       -5.2796564004
 H         -7.1921586870       -1.6562259226       -5.8709563360
 H         -7.0316662720       -3.1959613494       -5.7438119912
 O         -5.6061092702       -5.4637436051        0.8238157194
 H         -5.0605554158       -5.6841896883        1.5944923093
 H         -5.0741136240       -4.8712714934        0.2356066205
 O         -0.1928628280        0.5807583483        5.4341181927
 H         -0.0319480665        0.7449589552        6.3817177025
 H         -0.1065944047       -0.3816255130        5.3220875081
 O          1.7383725696        2.5931127430        5.3478165431
 H          1.3131091974        2.8967939768        6.1662966786
 H          1.1571833933        1.9387443207        4.9252901339
 O         -3.5767243450        2.6435632531        7.8082291136
 H         -3.7695666890        1.8316371665        8.2982871540
 H         -4.3971811275        2.8824093137        7.3344621395
 O          0.4654554398       -7.9358829306        0.1203668074
 H          1.4120495453       -7.8499502067       -0.0899934403
 H          0.3280840166       -7.2798584956        0.8266115307
 O          3.2732641602       -5.5779167946       -6.0383816500
 H          3.9116607477       -4.8656849799       -5.8765093974
 H          2.5823811938       -5.2160605799       -6.6037486137
 O         -2.8095078528       -5.5635536932       -6.4095172627
 H         -2.7052581436       -4.9276740388       -7.1470390864
 H         -1.8821697142       -5.8263814351       -6.2039561753
 O         -2.1807362955       -7.2968942053        2.2817098864
 H         -1.3380721580       -6.8138149523        2.2136961486
 H         -2.3512828306       -7.6618786342        1.3982923414
 O         -5.6130740362       -3.2098176614        6.1879904112
 H         -4.7222242083       -3.5568268229        6.3620473048
 H         -5.8723259181       -3.5707204825        5.3266469007
 O         -5.7893097440       -5.3713676690       -3.6249594047
 H         -5.3507939750       -6.1949263752       -3.8720955781
 H         -5.7390837104       -4.8471849727       -4.4448646352
 O         -2.9263840219       -3.9637141263        6.5375016337
 H         -2.6621741723       -4.6297947385        5.8826203614
 H         -2.1527467754       -3.8785244324        7.1202648276
 O         -2.8158905017       -7.7170529032       -0.4459893086
 H         -2.3762537673       -8.1245942738       -1.2032583976
 H         -3.7525298564       -7.6121870813       -0.7238047853
 O          4.8507503544       -3.3698267162       -5.3797709472
 H          5.3539065430       -3.7057554162       -4.6038798807
 H          5.5344169059       -2.9031382919       -5.8967287829
 O         -0.8305095877        3.7214995069       -5.1285297185
 H         -1.1220112515        4.3312336222       -4.4225031689
 H         -1.1460030293        2.8432366922       -4.8727098589
 O          2.8156164729        3.2804594859       -1.7384980785
 H          2.0267728620        3.8144226257       -1.5519491713
 H          3.3587193339        3.8286625656       -2.3333425840
 O         -2.4069577957       -3.5654169566       -8.1726790564
 H         -3.2336410685       -3.3190299141       -8.5928856195
 H         -2.1926195642       -2.8131435030       -7.5947436256
 O          0.9358052752        3.5114449371       -7.6345481707
 H          0.0454563054        3.7885802077       -7.8759075200
 H          0.8398912074        2.7624064998       -7.0027108177
 O          2.0543749007       -7.0576496059        3.6189389557
 H          2.4321830107       -7.8322880402        3.2038358196
 H          2.8037453015       -6.5408549672        3.9811335740
 O          8.3937419171       -3.1655548397       -4.7467209203
 H          8.5573979543       -2.3927072613       -4.1728705929
 H          7.9795267823       -2.8195697156       -5.5477519807
 O         -1.4663949137        1.0629176145       -7.2760082128
 H         -0.6350191795        0.8025017375       -7.7308693165
 H         -1.2065707606        1.3045289372       -6.3719536111
 O          6.4095471375       -4.1573186842       -3.3272113593
 H          6.2979523196       -3.3986239164       -2.6986036727
 H          7.2183209995       -3.9315536316       -3.8489098566
 O          0.0220514225       -4.0672036242       -4.1433521671
 H         -0.4089969895       -3.8771179214       -3.2893813367
 H          0.9489284630       -3.7928200677       -4.0620760900
 O          0.2966378736       -7.9299242250       -4.0219582375
 H          0.1230559567       -7.3642255260       -4.7979326852
 H          0.1238024777       -7.3430271656       -3.2450037452
 O         -3.1320681638       -3.8180848827       -4.3561883550
 H         -3.0448292666       -4.3736086816       -5.1512681889
 H         -3.0002337452       -4.4272690680       -3.6003373572
 O          5.6784611629       -5.9170279555        2.3838318577
 H          6.4332888986       -5.2945220502        2.2759462282
 H          5.7333128344       -6.5074569548        1.6183866808
 O         -5.5001482603       -4.3480490579       -6.1403811225
 H         -4.8619321921       -5.0180489059       -6.3992311908
 H         -5.1441444738       -3.4966893712       -6.4945654500
 O          6.1529758100        0.4486883337       -6.6161958285
 H          6.3187537061        1.3238299902       -6.2226133858
 H          5.2496966584        0.4482233770       -6.9907803752
 O          8.0824459921       -0.7304176180        3.6589407154
 H          8.4318283021       -0.6926319276        2.7474227250
 H          7.8282281160        0.1723999737        3.9003750486
 O          5.1997294716        1.2365518714       -2.2914170534
 H          4.5490046501        1.7945497191       -2.7200753809
 H          5.4112589100        0.5372741137       -2.9388759692
 O         -6.3373569533        0.0104174215       -6.3517857389
 H         -6.5138873067        0.3498407767       -5.4491380931
 H         -5.7195118160        0.6548543095       -6.7309829003
 O         -6.5351066573       -4.1880447823        3.6811117931
 H         -5.8266720700       -4.7649975871        3.3752673274
 H         -7.1620231438       -4.1157090342        2.9587344483
 O          3.1354206570       -0.3735244430       -4.9820163994
 H          3.2418131794        0.5516791831       -4.6872765702
 H          2.2515700655       -0.6346890794       -4.6641423308
 O          7.7159193743       -4.2620936497        1.8433536234
 H          7.2022398818       -3.4899171904        1.5082814081
 H          8.0995820164       -4.6473649617        1.0497166336
 O          0.7961466372       -0.0437670135       -8.1519249482
 H          0.7494280381       -0.8374700458       -7.5895702409
 H          1.6694549165        0.3298084544       -7.9812273562
 O         -7.7304241971       -3.8917459995        0.6905629571
 H         -7.7519247500       -3.7613343712       -0.2748416567
 H         -7.0988909398       -4.6317027444        0.8035706243
 O         -7.0603362428        1.0421497686        5.6032256881
 H         -6.2800139738        0.4856428524        5.8018545220
 H         -6.7336607461        1.9433919038        5.7657716061
 O          6.0818351713        0.9643167689        6.8690416044
 H          5.4059693718        1.6211537940        7.0782252588
 H          6.4879843196        1.2619663617        6.0358717921
 O         -8.4520064660        2.5040295873        0.7996409574
 H         -8.1589480904        2.1620852373        1.6624435039
 H         -8.6194092845        1.7030940809        0.2793001939
 O         -0.4735831311       -3.4635904191        7.6648754391
 H         -0.2083447889       -2.9584314226        6.8554259129
 H          0.2795652682       -4.0328788357        7.8442041918
