  609
      -1033.95742632
 O          6.5192780231       -3.8713820334        0.8621659298
 H          6.9247376989       -3.2821214328        1.5243809860
 H          5.8672529350       -4.4416590116        1.3123029915
 O         -4.6298087769        0.2019002452       -1.5288674692
 H         -4.7236682701       -0.7032201254       -1.8770231598
 H         -4.5902672411        0.7823882293       -2.3062350124
 O         -0.7406750696       -3.4698850890        0.8991132893
 H         -0.0019135249       -3.1360955312        0.3575272364
 H         -0.7586230902       -2.9299240053        1.7023708933
 O         -3.6114617864       -3.0625003124        2.6359373113
 H         -3.9091618966       -2.8443353733        3.5369146889
 H         -3.6000252005       -4.0350429707        2.5725005174
 O          5.7247753982        0.0937224041       -3.8757611006
 H          4.8135037516        0.2795719130       -3.6025072849
 H          6.0441090816       -0.6881071433       -3.3592855730
 O         -0.9607053806       -5.7890148495        2.2189563088
 H         -0.7902663645       -5.6008962814        3.1454845148
 H         -0.7642816174       -4.9585476170        1.7297556758
 O         -2.0201688086       -1.1129481878        1.6828707646
 H         -2.4511817089       -1.8441401948        2.1578107140
 H         -2.7166079776       -0.4599294902        1.5031971356
 O         -3.0533882540       -4.4518785755       -0.0970692365
 H         -2.9029111025       -5.4027240485        0.0622551928
 H         -2.2901533364       -3.9779914628        0.2838254757
 O          0.5083432482       -0.7514378067        4.5010955983
 H          0.4491320576       -0.3219915869        5.3716570398
 H          0.0798775824       -0.1237763251        3.8768847703
 O          6.1137080796        3.4485319960       -0.2265176778
 H          6.2510210955        3.1660161428       -1.1469372226
 H          6.4558346774        2.7141470892        0.3392342637
 O          3.5302161140        3.1121234868        2.7178858115
 H          4.0176545761        3.9481005845        2.7202814009
 H          2.8140910512        3.1638584074        3.3601652662
 O          0.8152836520        3.4581136596        6.4755240918
 H          0.8565730724        2.4888976525        6.5890449007
 H         -0.1350380869        3.6793255756        6.5640077184
 O         -2.6025139575       -1.7644689409       -0.9941169223
 H         -3.5016010678       -1.8217877872       -0.6224237383
 H         -2.0397152706       -1.6612504717       -0.2138224280
 O         -0.7974580842       -2.9678723440        3.6359067934
 H         -0.5482228538       -2.1491187937        4.0974917464
 H         -1.3538180840       -3.5166494947        4.2110961342
 O          1.9245883932        0.7427794119        2.2456794451
 H          2.2185502440        1.0875484016        3.1075941630
 H          0.9768510003        0.9484418227        2.2330043882
 O         -2.3437025212       -0.3908055840        4.6820968243
 H         -2.8761053826        0.1855583879        5.2486554658
 H         -2.9296555260       -0.5818881307        3.9302830556
 O         -0.1704648290       -5.6291753740       -0.7869748888
 H         -0.8571153906       -6.0022647126       -0.2214422417
 H         -0.5729646782       -4.8966361154       -1.2842814635
 O          4.9458746644        0.5795715243       -1.0537871702
 H          5.1625844861        0.0164369878       -0.2812147033
 H          4.4029180273        1.3040838372       -0.6965337754
 O         -0.5359510132       -0.9392006575       -2.8379731410
 H         -0.4949455596       -0.6922249773       -1.8581870489
 H          0.3166956381       -1.3474287861       -3.0736368065
 O         -0.6611559546        0.9206288354        2.7614310432
 H         -1.2924561088        1.4676875122        3.2595062990
 H         -1.1633367134        0.1690275315        2.3858627128
 O         -3.8894623666        3.3740093649       -1.5910606389
 H         -3.3914445133        4.2074353797       -1.4719920969
 H         -3.2383240135        2.6609835230       -1.7272862024
 O          1.0652980936        0.3642166339       -6.4663250834
 H          0.7103162319        0.7200580012       -5.6310321597
 H          1.4524496148        1.1148963245       -6.9438615914
 O          3.2223112392        0.9643013228       -4.0684053998
 H          2.6574416724        1.7428178234       -3.9055146084
 H          2.6652459419        0.1614752686       -4.0101376338
 O          3.4558599503       -3.0033699249        0.4527127707
 H          2.7116602371       -2.4502797551        0.7906270225
 H          3.0922815171       -3.8988608625        0.4022056612
 O          5.2577530147       -4.1116881563       -1.5215162596
 H          5.5190899593       -3.8076497174       -0.6364797869
 H          5.5048105900       -5.0518468178       -1.5322243530
 O         -1.5504246977        3.2840981304        0.2042874862
 H         -1.9526882830        2.3983464942        0.2412838729
 H         -2.1013508581        3.8244549612        0.7940217267
 O          1.4361394897       -1.8442322683        1.6653513910
 H          1.6674701879       -0.9952034932        2.0779920028
 H          1.4949746914       -2.5512191576        2.3265966216
 O         -4.7903304259       -1.7255918868        0.6063108679
 H         -4.8885423524       -0.8701975140        1.0352960411
 H         -4.4138246712       -2.3033588516        1.2968465356
 O          1.0865850102       -3.1154178581        6.8910238877
 H          0.2714619995       -2.5996441459        6.7673569197
 H          0.8269784590       -4.0507909060        6.7779827381
 O          3.5691906057        2.6958721811        0.0646852982
 H          4.4116904141        3.1820010200        0.0064023621
 H          3.3441071513        2.6776859872        1.0085464008
 O         -6.4391320147       -1.9719330853        3.2149849531
 H         -7.1411461100       -2.1374038378        3.8791759040
 H         -6.4382579000       -2.7151834912        2.6020934655
 O         -3.1468071960        1.0763426607        0.5674153081
 H         -3.7889347313        1.7124012766        0.9302584941
 H         -3.5902127054        0.6932323361       -0.2122172710
 O          3.9459547018       -1.7591754684       -1.9730368436
 H          3.8191140541       -2.2097811753       -1.1180293002
 H          4.2183709567       -0.8545866252       -1.7269560465
 O          4.7071947357       -5.6897264659        1.6247098921
 H          3.8125376604       -5.5817238416        1.2671116496
 H          4.5980826166       -5.7928620945        2.5907930987
 O         -1.8513737220        3.7261443991        6.3839917966
 H         -2.0023116061        3.1965869816        5.5688426808
 H         -1.9670033366        4.6497091205        6.0743598604
 O          6.6740256450       -2.0405748755       -2.6809084644
 H          6.0787588437       -2.6484269816       -2.2133894185
 H          7.0508812445       -2.5661980566       -3.4026714402
 O          5.9753090290       -0.9063664729        0.8244913893
 H          6.7307351173       -1.3871866888        0.4412798295
 H          5.6403606742       -1.4436404724        1.5615750705
 O         -4.3286114957        1.4606399711       -4.0063275659
 H         -3.7803776356        0.6795315000       -4.2265435204
 H         -3.7129369542        2.1898917502       -3.8020538716
 O         -3.6400910658       -5.7705367964        2.6006225344
 H         -2.7099923680       -5.9312297799        2.3382003501
 H         -4.1995127917       -6.0833417607        1.8670445178
 O         -4.3826909707       -0.2034177081        2.8891365107
 H         -5.0492030153       -0.8314458006        3.2008784616
 H         -4.7007318600        0.6884813059        3.1099229240
 O         -3.3511741841       -1.7932376292       -8.1427937776
 H         -3.6742568235       -0.8880046011       -8.2183924097
 H         -2.5165201740       -1.7148476629       -7.6513817758
 O         -0.6649690413        5.9962294924        2.6668120601
 H         -0.4174805139        5.9897445652        1.7118549102
 H         -0.0758256869        5.3455929322        3.1063689152
 O          6.2421626481        2.5789670729       -2.8133278364
 H          6.1346906799        1.6743821555       -3.1568724737
 H          6.8875018211        3.0316908355       -3.3934731303
 O          4.7423843206        0.6746731232        2.7287705957
 H          4.3895161254        1.5783410115        2.7530313053
 H          4.0177567232        0.0918096239        2.9806436771
 O          8.6314195720       -0.0230849040       -4.0466444708
 H          9.1919510754       -0.7773156733       -3.8102705999
 H          8.0896915386        0.1107308746       -3.2371607243
 O          7.5570998129        0.3426015064       -1.5971581858
 H          6.5978498006        0.4684041067       -1.4596310764
 H          7.7850812390       -0.5080703201       -1.1787131205
 O          7.8308356722        4.9408468328       -2.0187702647
 H          8.1619437022        4.8983393087       -2.9201227513
 H          8.5471063175        5.2841986598       -1.4345535889
 O          2.6356516888       -1.9265940841       -6.1677756668
 H          2.1046009510       -1.1649120506       -6.4508972457
 H          3.5721256621       -1.6617480584       -6.2369140308
 O          0.6344662254       -8.0808896447       -1.4270879634
 H          0.3517295995       -7.1417806795       -1.3860810948
 H         -0.0686072449       -8.5384656705       -1.8910654761
 O         -2.4190248199        2.5958848843        3.9948818421
 H         -3.2970741423        2.1937899932        4.0207545750
 H         -2.4992230988        3.3130114231        3.3329555082
 O         -2.5597354830        5.6491054273       -1.1612696076
 H         -2.3590922805        6.1629673006       -1.9768656466
 H         -3.1679661727        6.2039152996       -0.6396641913
 O         -1.2496740346       -1.6512641089        6.7294241930
 H         -1.3728871357       -0.9912815676        7.4150015431
 H         -1.6268248709       -1.2615133554        5.9040267453
 O         -2.9562652153       -3.7526826007        6.9646859084
 H         -3.6666523371       -3.3300389000        6.4438890966
 H         -2.2796498719       -3.0606035711        7.0665347072
 O          8.1351222745       -5.7944112221        0.0892413213
 H          7.5348247899       -6.4777647977       -0.2209406061
 H          7.5491801679       -5.0374486490        0.3448197094
 O         -5.1354004494        2.2996536245        3.5365014587
 H         -5.7641572978        2.1599228156        4.2780427747
 H         -5.6998291115        2.5699595513        2.7873373741
 O         -7.3969772628        2.9885017534        2.2674535487
 H         -7.6792153172        2.0940842563        2.5056407004
 H         -7.6516247941        3.1017290653        1.3335074540
 O         -2.9131713459       -4.5518970718       -5.2509286038
 H         -2.1064484750       -4.0067866664       -5.2938648513
 H         -3.1964271782       -4.5386958951       -4.3158637536
 O         -1.9874235234       -5.0321135804        4.9234329807
 H         -2.3713832798       -4.6465296138        5.7588200002
 H         -2.7114081044       -5.4632837044        4.4625769890
 O         -5.7933478882       -4.8703892331        4.1335845256
 H         -5.0411870531       -5.3932621988        3.8319555250
 H         -6.3074364336       -4.7045905159        3.3268318105
 O          9.8392831513        3.3034259824        1.3097828470
 H         10.7384980439        2.9808558106        1.1950172578
 H          9.3396706737        2.8869863532        0.5699752732
 O          1.9549399897       -1.3669400679       -3.6612121085
 H          2.1902890907       -1.7520909634       -4.5282153576
 H          2.6481705464       -1.6451425681       -3.0210933706
 O          1.0446945092       -2.5731803885       -0.9969784095
 H          1.5271663995       -1.7641152466       -0.7557113897
 H          1.6974857919       -3.2119756400       -1.3525724474
 O         -2.8382759328        4.5571902272        2.2023398143
 H         -3.7067477023        4.9684318005        2.2741098557
 H         -2.1463272272        5.2227412495        2.3971149913
 O          4.8539703028       -2.5911153168        2.6603796844
 H          4.3474847779       -2.8650272296        1.8630444465
 H          4.2566799912       -2.0539345001        3.1963620238
 O          0.9644090048        3.7076682345        1.3042641784
 H          0.0615383070        3.5615667662        0.9723705903
 H          0.9410247559        3.6488171859        2.2674484585
 O          1.6964223575        4.2252436897       -1.2927330728
 H          1.9377150164        3.6347048276       -0.5617638549
 H          2.5178517447        4.2863980619       -1.8099859981
 O          4.9872721486        4.5379010633       -5.0222353255
 H          4.6529418771        4.4099339552       -4.1020252655
 H          5.9451062892        4.5858811523       -4.9553854241
 O          1.0806850968        4.3450589822        3.9321939026
 H          0.9316885510        3.9093981582        4.7937635788
 H          1.7873018627        5.0040175858        4.0953235179
 O          6.9311243488        1.5467014857        1.3566210224
 H          6.7182500688        1.9919704609        2.1993423510
 H          6.3727830145        0.7398212466        1.3264863233
 O         -3.9174843488        0.8639820567       -7.4435613506
 H         -4.4982138668        1.6288723827       -7.3349959031
 H         -3.0559179223        1.1471741072       -7.0853728438
 O          1.5409927764       -4.0787105352        3.2397560958
 H          0.6397272814       -3.7624251418        3.4773634300
 H          2.1161648580       -3.9156308238        4.0084702730
 O          8.8161037557        2.5230800780       -0.9881209571
 H          8.2687170469        3.2671835776       -1.2876913718
 H          8.3002730444        1.6911325391       -1.1194444176
 O         -0.2723041586        1.2028786372       -4.1916735486
 H          0.3344459471        1.8346305552       -3.7828148497
 H         -0.2709272083        0.3457531652       -3.6761761493
 O          8.9345584576        3.3172360169        3.8946900610
 H          9.1283312007        2.3994270400        4.1483846454
 H          9.2797873317        3.4048713075        2.9885820579
 O          6.8992038525       -6.0552368037       -3.3239004533
 H          6.0488079164       -6.0325544160       -3.8136605666
 H          6.7303903493       -6.6191356003       -2.5635890134
 O          4.4295344168       -3.2313152095       -4.2912197523
 H          4.4355059826       -2.7257390660       -3.4637008007
 H          5.3484498054       -3.2712682064       -4.5980914552
 O         -1.2236760505       -1.2003325006       -6.4697824947
 H         -0.8910712157       -1.9766116800       -5.9756288716
 H         -0.4428888478       -0.6592688454       -6.6609468529
 O          2.4272099505        1.6799998125        4.7126016693
 H          3.3412513414        1.7890040565        5.0435744812
 H          1.9061936553        1.2852270328        5.4171349671
 O          4.1325464730        4.1854670838       -2.5276951542
 H          4.7225706180        3.4112108826       -2.4656509907
 H          4.5897849097        4.9097625688       -2.0523114218
 O          4.4867590096        2.1301979130       -6.0730994541
 H          4.0567929109        1.6531156903       -5.3242781611
 H          4.6505238208        3.0445459356       -5.7449448124
 O          2.6200519444       -4.3446651090       -2.1526959228
 H          2.4350345238       -4.2554974831       -3.1050910668
 H          3.5695261164       -4.1548253467       -2.0032261379
 O         -2.7970145445       -0.7433909292       -4.3372737645
 H         -2.3797402541       -0.8765916150       -5.2084307453
 H         -2.0912720326       -0.9339697066       -3.6936632231
 O          9.9892410991        2.3097912334       -3.3849905429
 H          9.6661860022        2.3020694359       -2.4565367411
 H          9.7015116409        1.4570895524       -3.7549101247
 O         10.4219574027       -0.0944745836       -0.8676036891
 H          9.8501774042       -0.1480550605       -0.0743406440
 H         10.0344427023       -0.6753447645       -1.5421742911
 O          3.0947187682       -1.1281402067        4.1556312366
 H          2.1288655996       -0.9495643102        4.2619838048
 H          3.5620844091       -0.7149429209        4.9229778110
 O         -5.0603481187        2.9354180437        0.7263505802
 H         -5.7814816298        2.3095464073        0.4954214630
 H         -4.6619114710        3.1983187290       -0.1319135038
 O         -2.3537379904        6.0034174167        5.0817912748
 H         -1.8074416322        6.1723476073        4.3070086802
 H         -3.2363499531        5.7418099449        4.7694639932
 O         -5.5429975059        5.3459924584        1.6867277492
 H         -6.4792569178        5.5494364894        1.5268035800
 H         -5.4242860975        4.4343154553        1.3244871103
 O         12.3366215592       -0.1532037653        2.1130388070
 H         12.4829696165       -0.7848032683        1.3687826726
 H         11.9960270713        0.6517590951        1.7074312721
 O          6.3799475542        3.1459959826        3.4856626833
 H          6.0666131364        3.9964388709        3.1651979513
 H          7.3398592111        3.2636821751        3.7235561049
 O          4.8081570849        5.4940503957        2.4597670957
 H          5.6324302161        5.7357043814        2.0036670631
 H          4.0932101757        5.6707932946        1.7987169179
 O          8.9486069393       -4.9550151660        2.6337235651
 H          8.1251824955       -4.7710130016        3.1198591314
 H          8.7179157710       -5.5429142263        1.9010992030
 O          0.4817332524       -5.5983406015        6.0322375725
 H          0.9809823566       -6.1175546691        5.3851365930
 H         -0.4261375153       -5.5435936521        5.6999134284
 O         -5.6979311929       -3.8919097701       -0.6009750420
 H         -4.7508826784       -4.0026502580       -0.4052850268
 H         -5.8690038428       -2.9458718750       -0.7610161305
 O         -3.6626993556       -4.4453352407       -2.6769439863
 H         -4.1293469026       -3.5811775964       -2.7415207844
 H         -3.2442143462       -4.4299846125       -1.7924602112
 O          7.8028930873       -1.5315628562       -6.3612344668
 H          8.1530183942       -0.9249537129       -5.6915349092
 H          6.8957155405       -1.2374987914       -6.5500311290
 O          0.3297866503        3.5686185775       -6.3693944532
 H          0.1213796532        4.4343774834       -5.9644817918
 H          1.0562611055        3.6392091537       -6.9979994234
 O          6.6670634009       -0.2836058088        4.3166494824
 H          6.8709116397       -1.0847142953        3.8055970104
 H          5.9927801988        0.1843721959        3.7837914631
 O          9.1383788569        0.6174490893        4.1251907171
 H          9.6714009028       -0.1457594705        4.3716186015
 H          8.1939063325        0.3562010775        4.2816381755
 O         -5.8903579883        5.5096139565       -1.5236498497
 H         -5.3138908568        5.5113697685       -2.3076793084
 H         -5.5387780672        6.1937098116       -0.9462128812
 O         -5.1907726151       -6.7450007585        0.5435872900
 H         -6.1421108923       -6.7531280244        0.6631974132
 H         -5.0469905153       -6.7300282720       -0.4273933281
 O         -6.6501305601        0.9408922633        0.0101156878
 H         -7.4264987006        1.0666193558       -0.5745192550
 H         -5.9519923304        0.5404634796       -0.5489218625
 O          9.0890315842        0.0220218861        1.4957158063
 H          9.3654000878        0.2985381182        2.3897162307
 H          8.3373305047        0.6189661539        1.2962024753
 O         10.1569918020       -3.0031340520        1.2050580838
 H         10.3237393945       -2.4183299953        1.9661697137
 H          9.7888198300       -3.8157875535        1.6049039604
 O         -4.8863812834       -3.1009434563       -6.3595299453
 H         -4.4428782841       -2.7624514463       -7.1642076101
 H         -4.2148662526       -3.6979606159       -5.9621487804
 O          8.4690975385       -4.1768083199       -2.0763638336
 H          8.6323984324       -4.7653577379       -1.3180085789
 H          7.8942749968       -4.6949060112       -2.6685087483
 O         -1.0550591563       -3.5308795316       -2.2443607901
 H         -1.7649876604       -2.9466330038       -1.8925379848
 H         -0.2432257781       -3.1170602911       -1.8834069449
 O         -8.6241417540       -1.1173790606       -4.6867576766
 H         -8.6789628202       -0.6575411986       -5.5272117160
 H         -7.9847916664       -0.5938156048       -4.1469912464
 O         -1.1180054977       -6.0787113428       -3.7005128311
 H         -1.6492193819       -5.8812787194       -4.4828234292
 H         -1.0612267295       -5.2508027794       -3.2044965542
 O          0.8511224943       -7.6811351175        1.3457363724
 H          0.0363736907       -7.1820060562        1.5350206654
 H          0.7578941117       -8.0467618201        0.4520090081
 O          9.9931310910       -2.0637130866       -2.8047476080
 H         10.8784402518       -2.4190193154       -2.8766709017
 H          9.4093359820       -2.8177034747       -2.5767810656
 O          5.5488717028        6.2453294577       -1.5120491924
 H          6.3753397270        5.8541549318       -1.8625768905
 H          5.7373915850        6.3169344096       -0.5641564713
 O          8.1910504983       -1.9790543945       -0.3531728798
 H          8.9156461593       -2.3226950816        0.2061120802
 H          8.0169305566       -2.6591638412       -1.0212784275
 O          8.0074153143        3.7173021642       -4.5105320028
 H          7.7652566444        3.1071840804       -5.2424844198
 H          8.8410510144        3.3213150490       -4.1688574511
 O         -8.5569229782       -2.1419744538        4.8509665148
 H         -9.0031560331       -2.7277453073        4.2251447856
 H         -8.9992184308       -1.2757744567        4.7092296325
 O          1.6493554111        7.5816929288        2.6528382354
 H          0.7275195621        7.3173487562        2.7814745717
 H          2.1309619255        7.3050487825        3.4426660664
 O         -6.3630971573        2.7380201780       -2.4115324601
 H         -5.4600140550        2.9692305121       -2.1275288634
 H         -6.5852931619        3.3816428266       -3.1021451933
 O         -0.1704787122        5.9628310229        0.0194195787
 H         -1.0318607791        5.7159233998       -0.3765847790
 H          0.4932781007        5.3632639759       -0.3616795511
 O         -2.2339768956        1.3719251333       -2.2048070021
 H         -2.3263461565        0.4514559951       -1.9396538752
 H         -1.6156828764        1.4062019174       -2.9455195497
 O          3.3776472561        4.3652480802        6.6562788552
 H          3.5082352928        4.6278936678        7.5667982281
 H          2.4625902947        4.0209337574        6.5984955833
 O         -4.6077220029       -2.6758841273        5.1470309039
 H         -5.1786126116       -3.4408468529        4.9206900227
 H         -5.1927679505       -1.9347606890        5.3551126344
 O         -6.3818966702       -0.5725790365        5.8202615084
 H         -7.1422228024       -1.1651646831        5.8212073988
 H         -6.7324045107        0.3097662406        5.6171873789
 O          5.1228213149       -0.7355047797       -6.3194990137
 H          4.9629781375        0.0947166728       -6.7737246633
 H          5.3414492120       -0.4870979625       -5.3859565140
 O         11.9350758529        1.9186465958        0.0178992977
 H         11.3297715722        1.2795834677       -0.4151724204
 H         12.8249362091        1.6361516066       -0.1972003476
 O         -2.4031379470       -7.9522142785       -2.3029214907
 H         -3.3400271542       -7.7748979115       -2.4603510379
 H         -1.9080692250       -7.3029962698       -2.8530119451
 O         -0.2338638762        5.4707934876       -4.5680648963
 H          0.6689359105        5.7984655713       -4.4069976873
 H         -0.3980651678        4.8589589787       -3.8249058843
 O          9.7232115258        5.5285960889       -0.2640593722
 H         10.4692326148        5.2596237378       -0.8347362742
 H          9.7364749537        4.8555463890        0.4455246507
 O         -1.7828224610        1.1617535816        7.7093779813
 H         -1.7249470957        2.1203118322        7.6262078778
 H         -2.6286847641        0.9402015807        7.2749266940
 O          5.5588864069       -6.7516214734       -0.8138416553
 H          5.3208111472       -6.5258037944        0.1004568119
 H          4.7187665483       -7.0200443074       -1.2320207098
 O         -7.1249144645       -1.6440199044       -1.2790956836
 H         -7.6813581753       -1.2072010774       -0.6066896954
 H         -6.9883978966       -1.0032314490       -1.9967916840
 O         -8.1652408362        5.7305687812        0.9248312495
 H         -8.4989120425        6.4041233493        0.3319441215
 H         -8.0701812799        4.9222706980        0.3590323067
 O         -4.0693461902        0.9396028476        6.2878014280
 H         -4.3969803130        1.8540799247        6.4187310601
 H         -4.8339889098        0.3517327716        6.3097684637
 O         -4.6608402110        3.5285019130        6.7169900719
 H         -3.7594046269        3.7005341626        7.0193032813
 H         -4.7585686390        4.1007828873        5.9225670082
 O         -8.6992260793        2.3786362006       -4.2016831196
 H         -8.3760821981        1.7750099077       -4.8956622682
 H         -8.2231647050        3.2045215612       -4.3419521364
 O         -4.3615047566        5.6760923367       -3.7976579196
 H         -3.7556741190        6.4224679993       -3.7159622988
 H         -3.7839150721        4.8937359836       -3.9047112656
 O         -7.4186064704        5.0817745705        3.9637229898
 H         -7.4728427905        4.2854173865        3.3937469643
 H         -7.8093501376        5.7900956112        3.4519252549
 O         -5.1883709006        2.8820611380       -6.0428370074
 H         -4.9612078384        2.2686981508       -5.2886924767
 H         -4.4521675115        3.4957580044       -6.0913683672
 O         -4.3357404138        7.1089537263        0.2344462813
 H         -4.7621864563        6.4600895567        0.8630415910
 H         -4.1249156606        7.8988672554        0.7287608595
 O          0.6962591620        0.7597007224        6.7298615695
 H          1.2845855577        0.2023890193        7.3070936887
 H         -0.1834311477        0.8007480139        7.1512083791
 O         -1.9526081359        7.1220539669       -3.2894836123
 H         -1.4248656130        6.5907753987       -3.9163690338
 H         -1.2806836986        7.6449128324       -2.8097165450
 O         -4.7796782560        4.8540625972        4.3975791769
 H         -4.7391380466        3.9905911514        3.9411313234
 H         -5.7053006736        5.1448929930        4.2677562566
 O         -6.7656345162        4.4685787849       -4.5286065615
 H         -6.0895579761        5.1195696848       -4.2882099916
 H         -6.3277656898        3.9039716360       -5.1961848160
 O         -8.6913739629        1.0703171038       -1.6874313056
 H         -8.6202956919        1.5294235760       -2.5344137445
 H         -9.2435072149        0.2874967048       -1.8461852074
 O         -7.9840682412        3.4438153599       -0.3513999066
 H         -8.8428860000        3.1738632053       -0.7122681388
 H         -7.3346518810        3.2411613067       -1.0565161748
 O          6.5797929702       -4.2621043141        3.9520426687
 H          6.0027605368       -3.6368287662        3.4674904208
 H          6.0238489057       -5.0189623472        4.1675125718
 O         -9.1375938788       -3.2660654260       -1.8199687061
 H         -8.7279814703       -4.0441495920       -2.2242266733
 H         -8.3722276533       -2.6763772028       -1.6045101068
 O          3.1344430479       -6.9804774682       -2.0182311114
 H          2.7928600406       -6.0774764283       -1.8543150358
 H          2.3859787740       -7.5737388677       -1.8653423487
 O         -6.9164016993       -4.2879809610        1.6747187337
 H         -6.3688303845       -4.0629678810        0.8790056212
 H         -7.4708696352       -5.0166472072        1.3351583863
 O         -6.7218322434        0.1471255617       -3.3544058605
 H         -6.0363307792        0.0064587549       -4.0249250046
 H         -6.6367493007        1.0679876398       -3.0411712145
 O         -7.4849103304        0.3203580328        2.4318776573
 H         -7.0674578404       -0.5212718345        2.6989385300
 H         -7.2316086103        0.4556293384        1.4949004214
 O        -11.6543996973       -0.0563923105        2.5030911573
 H        -11.2323245054        0.6395583635        1.9553154946
 H        -11.8154765686       -0.7870082155        1.8860264283
 O          2.4420433225        2.4575842223       -7.6968634324
 H          2.7483787546        2.3343778563       -8.5938547108
 H          3.2393297696        2.3640534642       -7.1124725929
 O         -0.6667519249        3.8175617684       -2.3886138690
 H          0.2733825566        3.9139195882       -2.1215936401
 H         -1.1366598661        3.7313670380       -1.5401871724
 O         -9.3824314583        2.7549062176        4.6260775551
 H        -10.0517413086        3.0127005157        5.2583356078
 H         -9.5393830489        1.7936566281        4.4207808262
 O         -9.5687550248        0.2024866281        4.0643829090
 H        -10.4105612190        0.0201697233        3.5789513464
 H         -8.8729824930        0.2491629161        3.3723232026
 O          3.1893758524       -3.4943595045        5.3132864954
 H          3.2357988246       -2.6085279215        4.8830647950
 H          2.4933296739       -3.4120656515        5.9949015691
 O          1.6606937998        3.0949666771       -4.0352108755
 H          1.2599434990        3.1818988507       -4.9191821212
 H          2.0517576920        3.9629935496       -3.8385967280
 O         -2.6986647607        3.5874680270       -4.1814285018
 H         -2.3233107458        3.1606542073       -4.9763531296
 H         -1.9812834982        3.6424426796       -3.5276695060
 O         -7.1938443777       -5.1127300221       -2.4427433784
 H         -6.6201289003       -4.6704690897       -1.7761568393
 H         -7.0554598298       -4.5907911778       -3.2505837558
 O         -8.3411398580       -5.9840633974        0.1619905300
 H         -8.0745854120       -5.8294078633       -0.7536855325
 H         -9.2272809184       -5.6093032733        0.2502643086
 O         -6.9101263778        2.1362042264        5.5056182141
 H         -6.5665233257        2.7496910777        6.1619135327
 H         -7.7653388529        2.4908845732        5.1829078580
 O          4.3838782978       -5.9546628610       -4.3112549763
 H          3.9271045582       -6.3554226046       -3.5544186562
 H          4.3289599305       -4.9810381745       -4.2238630617
 O        -10.1018990944        3.9852604071        2.1943742639
 H         -9.7626190060        3.6818227359        3.0521920395
 H         -9.4726411801        4.6348404152        1.8537965391
 O         -9.1588232498       -2.8641129780        2.2426576128
 H         -9.8079319225       -3.3310437370        1.6814373949
 H         -8.3215145552       -3.3304219210        2.0664991128
 O         -7.4680791852        0.9770158532       -6.2244853223
 H         -7.0460962878        1.7226720982       -6.6547096066
 H         -6.7375364504        0.3526140280       -6.0143211198
 O          2.3601695273        5.7651561573       -3.9894119144
 H          3.1818867828        5.8331409230       -4.4802856791
 H          2.5118955472        6.1822686723       -3.1091876887
 O          3.0974245039        6.0311364118        4.4943274342
 H          3.8429934606        5.9350437520        3.8751049287
 H          3.3509629366        5.5795675390        5.3159511387
 O          4.9007645405        2.2486872820        5.5600389337
 H          4.6136349331        3.0601611049        5.9969729075
 H          5.4724867770        2.5068943027        4.8070721424
 O          6.9144763391        5.7478935637        0.8373806202
 H          7.8451268197        5.9335472745        0.6894049813
 H          6.7371319465        4.8665882991        0.4338143157
 O          4.2605649792       -5.8302358247        4.2816261830
 H          3.4665716434       -6.3918364822        4.2271376034
 H          3.9448229974       -5.0123002321        4.6998144809
 O         11.5244012507        4.1139532145       -1.7249777521
 H         11.6909785053        3.4151430266       -1.0718815849
 H         11.1792987574        3.6597139415       -2.5025432335
 O          2.8668316989        6.9380106336       -1.6438942432
 H          3.8297421577        7.0012927755       -1.6811313751
 H          2.6853591243        6.4884064946       -0.7934520692
 O          2.3396121623       -0.8360988959        7.9508241317
 H          2.0224320409       -1.7288992504        7.7501589277
 H          3.1744207825       -0.7147640968        7.4629294677
 O          1.7438709581       -6.6885230878        3.7774244516
 H          1.6382957858       -5.7899034844        3.3905398688
 H          1.5099824770       -7.3074810516        3.0765098919
 O        -10.1050887900        1.5553283943        1.0128243863
 H        -10.1341152894        2.4680935972        1.3630568067
 H        -10.6448887244        1.5432738507        0.1979300399
 O         12.3144135165       -1.7936780119        0.0030059484
 H         11.7126547624       -1.1710695177       -0.4542910636
 H         11.7223423268       -2.4824226553        0.3437177761
 O          1.9499593952       -4.3145751079       -4.8445684787
 H          2.4192293509       -3.6099198151       -5.3225594783
 H          2.3662525064       -5.1405663092       -5.1058201563
 O        -10.1878452718        3.5528070868       -2.1014750330
 H         -9.8789207312        3.1246933690       -2.9100656683
 H         -9.7560886044        4.4245625681       -2.0925464410
 O        -10.3535805163       -0.8959636106       -2.5842172514
 H         -9.9419608830       -0.9483110386       -3.4632403585
 H        -10.1772020334       -1.7649071794       -2.1923104842
 O         -8.4561424733        5.6951717496       -2.3329436829
 H         -7.5634205398        5.5816058764       -1.9417659909
 H         -8.3133841219        5.6689850732       -3.2808686770
 O          0.1698986419        7.9529294385       -1.8149787311
 H          0.0380852114        7.3850852269       -1.0330542473
 H          1.1168733005        7.9055052639       -1.9827595946
 O          7.0973164964       -3.5510594742       -4.8548879379
 H          7.4347770891       -4.4298807752       -5.0239211720
 H          7.4519712437       -2.9228292123       -5.5281865892
 O         -5.3493083145       -0.5713527899       -5.6396225264
 H         -5.2416563270       -1.5241367810       -5.8412435401
 H         -4.7418805753       -0.1187765379       -6.2541575816
 O         -4.7730918513       -2.0783329547       -3.0051575586
 H         -4.1664379248       -1.6694597527       -3.6485855428
 H         -5.5779222871       -2.3636221801       -3.4794795034
 O         -4.9413714198       -6.7163404591       -2.1638352776
 H         -5.8570749525       -6.5387673093       -2.4173057320
 H         -4.4616444471       -5.8899025494       -2.4029304495
 O         -0.5654061500       -3.2357321338       -4.8715044238
 H         -0.7522292420       -3.1940774419       -3.9098768293
 H          0.2892248136       -3.6895855781       -4.9526228804
 O        -10.5309425863       -4.1044364636        0.2863724482
 H        -10.0201308683       -3.7715994308       -0.4892133460
 H        -11.3235522913       -3.5555414513        0.2920921451
 O         10.7032288831       -1.6386079297        3.5458465851
 H         11.2494676999       -2.2310442052        4.0615431122
 H         11.3234963891       -1.0173446105        3.0832739111
 O          2.1998852548       -5.4741260097        0.5420629378
 H          1.4719058754       -5.2475433446       -0.0587958089
 H          1.8871345147       -6.3053367885        0.9464707086
 O          7.7766891919       -2.1013589902        2.6028685204
 H          8.2621355247       -1.3946567962        2.1234465030
 H          8.4203197789       -2.5787683818        3.1292024517
 O        -11.6192503465        1.2855233855       -1.2235222257
 H        -11.3254682918        2.1302454035       -1.5912128602
 H        -11.2673199539        0.5963784007       -1.8051871497
 O          2.6944281942        5.8521072324        0.8922902594
 H          2.2813222847        6.5698043776        1.4188904310
 H          2.1272355066        5.0645879812        1.0058079791
 O         -9.0803379630       -0.8985841183        0.4097955526
 H         -9.2566170699        0.0136680736        0.6949659146
 H         -9.0507471245       -1.4682918157        1.2051670338
 O          7.2271416488        1.6675786441       -5.9798992953
 H          6.2576317554        1.7123097187       -6.0006019181
 H          7.4760812550        1.0121121793       -5.3150850585
 O         -2.3624944279       -7.0519395792        0.1482624228
 H         -2.3357149249       -7.4450392369       -0.7631206457
 H         -3.0621662804       -7.5198654775        0.6067117047
 O          4.4493619288       -0.3842769738        6.2586212722
 H          4.9081756942        0.4534045182        6.0992611924
 H          5.1278265094       -1.0928388939        6.2451169999
 O         -1.8362402000        2.0354598822       -6.1839967733
 H         -1.1048971594        2.5569006263       -6.5536359267
 H         -1.3992529549        1.4643578438       -5.5260714299
 O        -11.6983712781       -1.5520737679        0.1495765270
 H        -12.1569833250       -0.8897613280       -0.3711832309
 H        -10.7452851416       -1.3254801898        0.0790703609
 O          5.7459331374       -2.7407299534        6.1797929836
 H          6.3167011579       -3.1234256955        5.4980006333
 H          4.8940038717       -3.1905515015        6.0809297498
 O         -6.8213469177       -3.1832331318       -4.3867731776
 H         -7.5535029057       -2.5617880147       -4.5531291125
 H         -6.3367756552       -3.2986121561       -5.2172993016
 O         -0.2661407459       -0.1206339485       -0.3708897106
 H         -0.1807653051       -0.4889423160        0.5105934677
 H          0.4626991164        0.4992802838       -0.5294053749
 O          1.7467449197        1.2856539304       -1.4530658864
 H          2.3758743870        1.6227985866       -0.8017425297
 H          1.4674515550        2.0475784399       -1.9652437882
 O          0.6517357506       -3.3083146490       -7.8595729266
 H          1.3415142598       -2.9467995629       -7.2926191297
 H         -0.0716589935       -3.5904749690       -7.2981132367
