  75
       -127.25792174
 O          1.1354445599       -1.4085152668        1.7031582132
 H          1.7507372012       -2.1528909696        1.7205645183
 H          1.0725036190       -1.1364440651        0.7621767533
 O          0.6152324447        1.3531598723        2.5894649512
 H          0.1990723363        0.6873878429        3.1812031400
 H          1.4879368634        1.0178757631        2.2864110987
 O          1.9261422524        1.9917922573       -1.1690584329
 H          2.7318734920        2.1477502331       -1.6635814993
 H          1.5355258189        2.8504945576       -0.9253367788
 O          4.3376189305       -1.3207407538        0.6032153889
 H          3.8232465891       -2.1287326925        0.8163177795
 H          5.2453249916       -1.4925222264        0.8518854190
 O         -2.3017438986        3.8512770084       -0.6908995721
 H         -3.0353526098        4.3984405268       -0.9717222831
 H         -2.2954860753        3.0601593393       -1.2777244860
 O          2.8856650287       -3.4972716039        1.2105302724
 H          3.1926318485       -4.3033386803        1.6239905742
 H          2.3579572686       -3.7850843635        0.4019983637
 O         -1.3828627340       -2.0347806634       -1.9762934117
 H         -2.2225827354       -1.5240101738       -1.8687883873
 H         -1.4274280668       -2.7912477478       -1.3671225626
 O          0.4276872066        4.0659588786       -0.2512738842
 H          0.4936013974        4.1528597073        0.7176165138
 H         -0.4920608820        4.2632796302       -0.4800003741
 O          0.1411783632        1.2283656980       -3.1540670376
 H          0.2361826832        0.3228394840       -3.4950239835
 H          0.7975121964        1.3271762401       -2.4414159357
 O         -2.2835943384        1.8597023890       -2.4930995328
 H         -1.3340718631        1.5940322578       -2.6802597268
 H         -2.6389478402        2.1291811474       -3.3408053886
 O          0.0521971884       -1.3903377181       -4.1039467674
 H         -0.3884468114       -1.6393328441       -4.9159568061
 H         -0.5172306865       -1.6979114363       -3.3647729259
 O         -0.9995212747       -0.2095840395        4.0365427847
 H         -1.7867954318        0.3280975377        3.8551688862
 H         -1.1374189290       -1.0501471860        3.5758326438
 O         -1.3453997848       -2.2032514028        1.9902007644
 H         -1.8795387291       -1.4908215166        1.5821050252
 H         -0.3999442164       -1.9049983892        1.9314903055
 O         -1.2111864555       -3.8892257735       -0.0160259667
 H         -1.6735746965       -4.6975902760        0.2014096486
 H         -1.2745043992       -3.3004887646        0.7879608797
 O          2.2212527203       -2.7927598053       -2.9469990847
 H          1.5068666770       -2.3867046983       -3.4571658558
 H          2.7324710674       -2.0313904826       -2.6047697689
 O         -2.7196538706       -0.0933681133        0.9697059282
 H         -3.0617970330        0.3469437261        1.7643443241
 H         -1.9996514937        0.4870760270        0.6517149895
 O          3.1912197536       -0.5224573454       -1.8205684476
 H          2.2802784223       -0.4376147860       -1.4833322593
 H          3.7208246963       -0.7695503632       -1.0498261655
 O          0.6411191002       -0.6435294976       -0.8151267152
 H          0.1892804937        0.1764226129       -0.5285272439
 H         -0.0405231585       -1.1883108330       -1.2537969945
 O          0.3811821589        3.9566564692        2.4866382684
 H          0.5154032141        2.9806305390        2.5980762416
 H          0.9680195375        4.3812922108        3.1116438730
 O          2.9018546390        1.0071202079        1.2835061662
 H          2.5550800144        1.2551912456        0.4108522674
 H          3.3727537475        0.1719477937        1.1527198945
 O         -2.3479402869        3.6297965615        2.1035297947
 H         -1.4284451996        3.8287645899        2.3421343062
 H         -2.3686213947        3.6116286346        1.1328143067
 O         -3.4854358456       -0.4797369617       -1.6046765861
 H         -3.1321453271        0.3664127135       -1.9282902066
 H         -3.4287916289       -0.4193524359       -0.6348396917
 O         -3.1673572469        1.3787601464        3.2158560833
 H         -2.8391154516        2.2287646947        2.8244635744
 H         -3.8952492920        1.6104905193        3.7918438663
 O          1.4749411592       -4.2418347312       -0.8140285689
 H          0.5381744094       -4.0635318907       -0.6384128159
 H          1.7244919219       -3.7410586647       -1.6253220788
 O         -0.6265865575        1.4365685626        0.2835420591
 H         -0.3532702050        2.2831983415       -0.0911885638
 H         -0.1779689157        1.3802333560        1.1666196152
