  222
       -371.48360402
 H         -2.1175518157        2.5143505321        0.3374754679
 C         -1.7785267945        1.5310624176        0.6604552886
 H         -1.5117532532        1.5722586289        1.7199114927
 C         -0.5508317173        1.1059374057       -0.1367556721
 H         -0.1471352657        0.1767080770        0.2594474796
 H          0.2156704785        1.8700892104       -0.0699801556
 O         -2.8545513069        0.6518227385        0.4415937339
 H         -2.5694119685       -0.2384938351        0.7669076815
 N         -0.9143149167        0.8944583075       -1.5487727770
 H         -0.0362833366        0.9377140558       -2.0989006596
 H         -1.5834253810        1.6268690167       -1.8679878737
 H         -1.3940795504       -0.0423978873       -1.6331346788
 O          3.0613201190       -3.4837209934        3.2983319230
 H          3.8749306342       -3.9869332206        3.2964896266
 H          3.1279109048       -2.8330337696        2.5517385544
 O          3.9758774592        0.1227825616       -0.5079339796
 H          3.5965551185        0.7429807230        0.1532473040
 H          4.5212980832        0.6786615061       -1.0982688317
 O          8.3868829759       -0.6059480745        1.4569795324
 H          9.0162659347       -1.1986015883        1.0429142527
 H          7.5098103525       -0.8923119966        1.1534195880
 O         -0.9040215000       -3.0642018193       -3.3085020962
 H         -1.4488809138       -2.6713160294       -2.5948176887
 H         -1.4080062077       -2.9150769270       -4.1377456671
 O         -1.3931526392        0.6585447096       -4.5974046607
 H         -2.1956216257        0.5847916880       -4.0438580407
 H         -1.0542206719        1.5569412082       -4.4723385855
 O          1.6950132125        1.3723902318       -2.0461347963
 H          2.3316224569        1.0658240636       -2.7134532564
 H          1.9736298238        2.2762608303       -1.8341551255
 O          7.9812754394        0.6346516520       -2.3139900144
 H          7.8480656178       -0.2927370620       -1.9787079072
 H          8.5643965262        0.5773954931       -3.0702701797
 O          5.2093847095       -3.8612505058        0.2584407460
 H          5.6226505539       -3.9212948152       -0.6157698532
 H          4.2627481053       -4.0170708288        0.0863933506
 O          3.4599592436        4.1960043625        3.5491596068
 H          3.3097963547        4.4883600576        2.6414046891
 H          4.1960548065        3.5671793884        3.4985151252
 O         -0.2299173614        3.0450865563       -3.7723458327
 H          0.6609747356        3.0366687043       -4.1536430367
 H         -0.1370087338        3.4505470102       -2.8956350611
 O         -5.2862247012        0.8184994427       -1.0353790946
 H         -6.1247660591        0.7706307950       -1.5055260994
 H         -5.2381700969        1.6968239661       -0.6166301327
 O         -3.5506431758        0.2071613512       -3.0577184260
 H         -3.7081412011       -0.7629354882       -3.0874442163
 H         -3.9199795603        0.5102441724       -2.2106072855
 O         -1.3232351383        3.3341648136        5.1012967596
 H         -1.2080541074        2.4141415762        4.7852528830
 H         -2.1997772151        3.3595364315        5.4904046725
 O         -7.0117939005       -2.6152333379        0.3308910257
 H         -7.6977057594       -3.2622992887        0.4976512394
 H         -7.4738244011       -1.7329690821        0.2715862574
 O         -1.9702794858       -1.5157460581        1.6475918658
 H         -2.3577450406       -1.4214410061        2.5465941876
 H         -1.0010052232       -1.4180749117        1.7615643045
 O          2.8545110489        4.4703288317        0.7453214761
 H          2.9416180133        4.5045938902       -0.2170566706
 H          1.8940814411        4.4651372896        0.9307684825
 O         -3.4206685138        4.1466818617        1.7627162801
 H         -3.5110458528        3.3709844646        2.3664240991
 H         -2.7868577714        4.7165658067        2.2224619939
 O         -1.9210228039       -1.5692651872       -1.3705952921
 H         -2.8185800101       -1.6369448063       -0.9902516899
 H         -1.2923217893       -1.9093581211       -0.6959207102
 O         -2.3101805372       -2.0950692139       -5.3345973935
 H         -2.1064102092       -1.1542068461       -5.3761764893
 H         -3.1435783887       -2.1769512694       -4.8435806900
 O          1.5373290664       -4.1895858923       -2.9195913951
 H          2.0083826185       -3.8451255656       -3.6875086473
 H          0.6419665620       -3.8158315465       -3.0103148558
 O          3.7667128692        0.8438072641       -3.7471289496
 H          3.9430885861       -0.1131366058       -3.6556440843
 H          4.4376718728        1.2822155577       -3.1978932751
 O          3.1619721701        1.8770368355        1.2744440858
 H          3.1159688573        2.8098685546        0.9727523347
 H          3.8715239031        1.8763267431        1.9567971715
 O         -5.5277661152        3.2781194663        0.1061142649
 H         -6.2427942619        2.9044022872        0.6480841589
 H         -4.8616303231        3.6076986823        0.7250886316
 O         -6.6768930030       -2.3867486344       -2.4769921800
 H         -6.7948119829       -2.5773178982       -1.5354737959
 H         -7.0461752633       -1.4997855358       -2.6235213506
 O         -0.5517614254       -5.0043531144       -0.9957236095
 H         -0.0116276373       -5.2437258050       -1.7522687275
 H         -1.4508777090       -4.8250053059       -1.3261133706
 O         -7.6078468655        0.2204230395       -2.6990617292
 H         -8.4502350584        0.3003534732       -3.1473271775
 H         -6.9273824682        0.5974422032       -3.3466833750
 O          6.3147082416        3.0625948759        0.3860813248
 H          7.2066391344        2.6108948946        0.3373822486
 H          6.4842095457        4.0048044402        0.3838445670
 O         -4.9677909111        0.2870060106        2.0833617272
 H         -4.3249775497        0.4335496590        1.3590088623
 H         -5.0154494585       -0.6859004704        2.2144205678
 O          0.2546222688        3.9918119078        1.3038802570
 H          0.4033253266        3.1253632654        1.7575405329
 H         -0.2928902130        4.5145255354        1.9130948063
 O          5.3005539936        2.2570201965        2.7867652742
 H          5.7656308800        2.5497471293        1.9803504188
 H          5.6638967771        1.3868355500        3.0323822221
 O          0.5539202380       -0.8920847467       -3.6823076171
 H         -0.0807736288       -0.2825524576       -4.1150670497
 H          0.0240259801       -1.7034876491       -3.4939450764
 O          2.5964302249       -4.0481978552       -0.4023491870
 H          2.2646673801       -4.0986866008       -1.3199018881
 H          1.9863966701       -4.5551077951        0.1510621828
 O         -8.2105320948       -0.3244531629       -0.0083544106
 H         -7.8965771042        0.4273448688        0.5280202222
 H         -8.0892962621       -0.0736526225       -0.9353477003
 O          7.5563510479       -1.7326581420       -1.2989444755
 H          7.1644909424       -2.4355147013       -1.8392387508
 H          6.8931633560       -1.5634608000       -0.6007349230
 O          5.9035795811       -3.5859972631       -2.4453062470
 H          5.9368602720       -4.2808251080       -3.1021899962
 H          5.2196553100       -2.9384226300       -2.7413709950
 O          8.5547264363        1.7824522263        0.1350971033
 H          8.4967550176        1.4339997054       -0.7707676684
 H          8.5788164217        1.0007485063        0.7194715476
 O          3.2784679868       -0.0694068021        3.4059859248
 H          3.2300841567       -0.5641504615        2.5780763429
 H          4.1908060389       -0.1339855391        3.7042764401
 O          2.8563138040       -1.8368895953        1.2608456228
 H          1.9395826467       -1.5253650169        1.4128089286
 H          2.8154373190       -2.4540243579        0.5100659197
 O         -5.1636078393       -2.3756252864        2.4386804608
 H         -5.9363118132       -2.5082619683        1.8704623647
 H         -4.4628619561       -2.9119835806        2.0178376956
 O          2.4237512957        4.0537918669       -1.9509438427
 H          1.5219151087        4.4003073130       -1.8587703861
 H          2.5996686138        3.9723622569       -2.8984862004
 O         -3.1872035768       -3.7916712870        1.1178871978
 H         -2.6805705157       -2.9489398293        1.1750742822
 H         -2.6491445299       -4.4377193312        1.6089700840
 O         -2.6433372998        2.8777190838       -2.4196102108
 H         -2.1683765266        3.1605845325       -3.2076684618
 H         -2.6422601338        3.6317219635       -1.7941150243
 O         -7.1458637048        1.6333287898        1.5693587373
 H         -7.6074126303        1.7917402307        2.3926568033
 H         -6.3386872902        1.0945006565        1.7909091076
 O          4.0441215518       -1.8428455469       -3.2299210680
 H          3.5617037767       -2.1524828275       -4.0136525323
 H          3.3747718260       -1.8435721889       -2.5052412097
 O          2.0395174751       -1.4461326474       -1.4945278592
 H          1.5273503848       -1.0079254619       -2.1953547181
 H          2.5945539109       -0.7647456139       -1.0635413733
 O         -2.8852223021        4.9814376095       -0.7626575074
 H         -3.6903645739        5.4179264659       -1.0478441578
 H         -3.0522109423        4.6701535926        0.1504493432
 O          0.9136715620       -4.4170828629        1.8382208777
 H          0.6211022193       -3.5924437915        1.4056070815
 H          1.5925207914       -4.1761871637        2.4900245185
 O          2.1958932049       -2.4637970044       -5.0798784431
 H          1.9338523109       -2.5351881088       -5.9969073443
 H          1.5964149793       -1.7984491991       -4.6613456944
 O         -1.6291163185       -3.5773985843        4.7377835779
 H         -0.7134722138       -3.2568569345        4.7579980443
 H         -1.6638980938       -4.2431709650        4.0313046863
 O          1.5177642409        2.9039033599        4.8466749654
 H          2.2468482586        3.4431117704        4.4646280439
 H          0.8397187072        3.5023200460        5.1674594299
 O         -1.2953722136        5.1906474356        3.1948750557
 H         -1.0837410756        6.0204467947        3.6225581949
 H         -1.2927311757        4.4948137670        3.8970893437
 O         -1.2534574489        0.7338703753        4.2497917693
 H         -1.8346449301       -0.0310761852        4.3824554945
 H         -0.3671755813        0.4654065955        4.5646553697
 O         -0.2108794423        4.3954077024       -1.3112746107
 H         -0.9871830895        4.9656311473       -1.3013276167
 H         -0.0547980449        4.1800037082       -0.3683146858
 O          0.8618231942       -2.3984477183        4.5174196920
 H          1.0345370689       -1.6540828923        5.1103949088
 H          1.7122849843       -2.8280317379        4.3364942390
 O         -2.9801756618       -1.4279049760        4.1018277590
 H         -2.5317429268       -2.2473890756        4.4376333049
 H         -3.9017605268       -1.6674201256        3.9612289403
 O          0.5389095113       -0.9596692792        2.2558829033
 H          0.6166938730       -1.4411140550        3.1052111095
 H          0.5929478896       -0.0022995656        2.4571917144
 O          0.8658963998        1.7201392801        2.5233186509
 H          1.7515700851        1.6611106053        2.0910596580
 H          1.0507699103        2.0448123486        3.4295314848
 O          5.5491119528        1.7936569361       -1.9096953737
 H          6.4186781795        1.4143053537       -2.1284905949
 H          5.7035435850        2.3751283854       -1.1410539564
 O          0.0872260139       -2.6090193814       -0.0240923356
 H          0.8311014607       -2.2557502232       -0.5534055074
 H         -0.1155235074       -3.4994147331       -0.3911722641
 O          1.2785995294        0.1952537644        5.1637371865
 H          1.4099269243        1.0811127331        5.5225595906
 H          2.0061951618        0.1001913017        4.5110573964
 O         -3.1746946703       -4.3157456446       -1.4758281726
 H         -3.7719198329       -5.0513656211       -1.6097533558
 H         -3.2453187322       -4.0646360048       -0.5187869134
 O          2.4464792433        3.0885213976       -4.5905183912
 H          2.7193472420        3.3647621385       -5.4652207012
 H          2.8896296776        2.2379618297       -4.4125054701
 O         -3.6038878150        2.1327979877        3.4995142974
 H         -4.1940137374        1.4515519214        3.1284745906
 H         -2.7727985037        1.6733208193        3.6747418003
 O         -5.3162855266        3.4830937218       -2.7135772876
 H         -5.6182510695        3.5356977911       -1.7982923436
 H         -4.3911368183        3.1859052476       -2.6645325184
 O         -5.8001480077        1.2623191440       -4.1971991425
 H         -4.9458628539        0.8460682737       -3.9650893363
 H         -5.7474773063        2.1682989860       -3.8361430616
 O         -1.4598501204       -5.3067141278        2.5791096835
 H         -1.4581653826       -6.2626214536        2.6123908755
 H         -0.5577169597       -5.0329794165        2.2778806774
 O         -4.1147784566       -2.3872490567       -3.2634978090
 H         -5.0768479908       -2.4238693634       -3.0853244691
 H         -3.7128816766       -3.0237198706       -2.6477962175
 O          5.7781196732       -1.3382558163        0.7379562783
 H          5.0427748736       -0.8314990881        0.3071313710
 H          5.5071077967       -2.2893671760        0.6918970734
 O         -4.3636033355       -1.6145241942       -0.3122840325
 H         -5.1249775763       -2.1891351342       -0.2083343861
 H         -4.7033804110       -0.7274521608       -0.5173956150
 O          6.0417519490       -0.3273717935        3.2303660552
 H          5.8762951817       -0.7389334783        2.3536322241
 H          6.9879336217       -0.3967961636        3.3754529560
