  144
       -244.35293175
 O         -0.9444282348        0.5486943901       -3.8745808817
 H         -1.1162732442        0.6737921089       -2.9152264811
 H         -0.0058016160        0.7286474888       -3.9947339998
 O         -5.6751607302       -2.7628393877        1.6068590191
 H         -4.7450197678       -2.9534316821        1.8001383480
 H         -5.8222590464       -1.8641285953        1.9384217958
 O          3.1379052224       -4.4170362857       -0.3646678047
 H          3.2007670105       -3.8938413672       -1.1906401071
 H          3.4031158108       -5.3096353607       -0.5948765966
 O         -0.5466815463       -4.1253542979        2.7118962946
 H         -0.0835190716       -4.5303831666        1.9306031807
 H         -0.6053684327       -4.8202235426        3.3686414306
 O          3.0496517694        0.0240283335        0.1026689205
 H          2.8340762955       -0.3618839093        0.9759729598
 H          4.0335095076       -0.0607031141        0.0499538531
 O          0.7375605309       -1.9398495137        3.9191251301
 H          0.0593171071       -1.2656385829        4.0798437952
 H          0.2848094702       -2.6977836348        3.5151214429
 O          5.9611175330       -2.1363994247       -1.7722159626
 H          5.1310397517       -2.3966061990       -2.2045072648
 H          6.0851710484       -2.8031307441       -1.0640021083
 O         -5.3999131242        3.5489127641        0.6957992902
 H         -5.0440556854        4.1876555448        0.0587195270
 H         -5.7854601521        2.8392250905        0.1625014044
 O          5.1894747611        2.6838720587        1.5092534240
 H          6.0137618560        2.6080612500        1.0088414189
 H          4.5009676398        2.7684732702        0.8189684891
 O          2.0586372717       -0.8189720422       -2.1969511890
 H          1.1588076144       -1.1583160578       -2.0053921554
 H          2.4273660121       -0.5226479358       -1.3307270640
 O         -3.6764949961        0.0129280973       -3.6792191977
 H         -2.8169951435        0.0300721696       -4.1207503601
 H         -3.8405290182        0.9239554057       -3.3956485214
 O         -4.0245889809        0.3272900232        0.3967186202
 H         -4.5060152534        0.0334133900        1.1924224650
 H         -4.7087737270        0.7602890507       -0.1671295292
 O         -5.9224863067       -3.1820439343       -0.9812738486
 H         -5.8805826360       -2.9726012692       -0.0117632327
 H         -6.7319081169       -3.6763984094       -1.1102150291
 O          0.0558028057        3.2558926069       -2.2267382287
 H          0.4536133252        3.6242606494       -1.4131677487
 H          0.7393474599        2.7060343556       -2.6605249524
 O          0.3381851710        2.1614062603        2.0955130380
 H         -0.1164644256        1.4153195139        1.6806847713
 H         -0.2739619091        2.4867825709        2.7811638484
 O          1.7573128944        1.5357391918       -3.4449634659
 H          2.6447238852        1.9227766423       -3.4592482332
 H          1.8818879681        0.6625797637       -3.0191386575
 O          1.0123196140        3.9519571535        0.1787529645
 H          0.7514328961        3.3471603806        0.9010183819
 H          1.9299611860        3.6943926926       -0.0230866530
 O         -3.5137213698       -1.4233667374        4.0242002429
 H         -3.2947118266       -2.0820971551        3.3494286296
 H         -2.7037695792       -0.8829014399        4.1208070421
 O         -1.6118144349        1.3778938641       -1.3629890725
 H         -0.9888339370        2.1153163629       -1.5455705386
 H         -2.4850482979        1.7370479281       -1.5955722953
 O         -2.8686072671       -1.2425452464       -1.4398105703
 H         -3.1842441403       -0.8556843281       -2.2803865812
 H         -3.2675985761       -0.7006121878       -0.7256694651
 O          5.7611573614        0.8600951412        3.5362124970
 H          5.6299016963        1.4965666360        2.8107880100
 H          5.0280292542        1.0128204038        4.1370507449
 O          0.6134614852       -5.2328061225        0.6275676037
 H          1.4984493590       -4.8990737271        0.4207273142
 H          0.0961854204       -5.1409736312       -0.2019510866
 O         -1.7243629287        2.7757491894        3.7436530256
 H         -1.8962277149        3.6305534672        4.1375970458
 H         -2.3137152525        2.7036279973        2.9511045744
 O         -5.8215236017        1.4694925441       -1.1803360845
 H         -6.1284899334        0.6488335668       -1.6272784278
 H         -5.2569079222        1.9194049572       -1.8263390248
 O         -3.2337426077       -3.7769230658       -0.7680868159
 H         -3.0716222751       -2.8647862070       -1.1003301581
 H         -4.1830063059       -3.9009499538       -0.9116563400
 O          2.8455908430       -0.9083269534        2.6175045349
 H          2.8954505216        0.0116608418        2.9584295830
 H          2.1563352597       -1.3547885051        3.1508623835
 O          5.6319280424       -0.3556300952        0.1656620023
 H          5.6519626445       -0.8554408449        1.0211043446
 H          5.7931509508       -1.0073018901       -0.5522377004
 O         -3.7410315519        2.6417484673       -2.5834733960
 H         -3.1099057414        2.8863307091       -3.3087061552
 H         -3.8630297568        3.4754501213       -2.0910781136
 O          5.6942984681       -3.5928700880        0.4800784057
 H          5.7482134363       -3.0634291473        1.2875461658
 H          4.7652139844       -3.8609881112        0.3994372719
 O         -2.8482941543       -2.9704335059        1.7859694386
 H         -2.0766048672       -3.4310190062        2.1620372171
 H         -2.9617020198       -3.3368373174        0.8821411119
 O          6.3782615282        0.7081707907       -2.6742988901
 H          6.8127574008        1.1027025431       -1.9001778800
 H          6.3192927369       -0.2407069327       -2.5086997987
 O          4.3461048644        2.3920103762       -2.9350188642
 H          4.7696501410        3.1487813175       -3.3408240562
 H          5.0431167090        1.6935931642       -2.8742642650
 O         -5.3846393924       -0.2303022466        2.6570486821
 H         -5.8336360952        0.4644022151        3.1375870768
 H         -4.7085385637       -0.6298951276        3.2719061848
 O          2.8832576821        1.7160328504        3.1545548354
 H          3.5346441727        2.2006012924        2.6338256195
 H          2.0083562829        1.9486386235        2.8001849994
 O          7.2555203187        1.6820317331       -0.1608052929
 H          6.6654119523        0.9195224752        0.0585882759
 H          8.1071415891        1.4896390852        0.2319471263
 O          5.4322999300       -1.5965446572        2.4729410778
 H          4.4580527350       -1.5325573885        2.5704379479
 H          5.7631287417       -0.8391180422        2.9952868577
 O         -3.8756670739        4.9618244552       -1.1815480159
 H         -3.0425099814        4.9249711919       -0.6473846181
 H         -3.8958086254        5.8245804846       -1.5947212822
 O         -6.1385010523       -0.8474641094       -2.4555401448
 H         -6.0214126685       -1.6684759801       -1.9441540392
 H         -5.4027318878       -0.7998027387       -3.0769208101
 O          3.2971449175        2.6408880934       -0.4188263719
 H          3.6746354823        2.6304815629       -1.3167897222
 H          3.0721857601        1.7072020855       -0.2211131188
 O         -3.0510803740        2.5776826217        1.4834195490
 H         -3.9265673078        3.0105297331        1.3550812419
 H         -3.1739469211        1.6911861256        1.0843664756
 O         -1.7507694173        4.6981756637        0.3519180954
 H         -2.0461228394        3.8716524821        0.7774524720
 H         -0.8055889644        4.6104919478        0.1827159440
 O         -0.7541894466       -4.6631619024       -1.6458335338
 H         -0.4863355655       -3.7503667513       -1.8264798206
 H         -1.6898128527       -4.6017658947       -1.3954150993
 O          3.4571091863       -2.9768313657       -2.6502602970
 H          3.2138960674       -3.3297012445       -3.5062462098
 H          2.9345039116       -2.1379969776       -2.5317032271
 O         -1.2569920274        0.0356439986        3.8442315222
 H         -1.3660988953        0.9568290244        4.1112873170
 H         -1.2599391048        0.0373398513        2.8611550164
 O         -1.7910133756        3.1270553866       -4.2777222175
 H         -1.1387666642        3.4922452730       -3.6598750314
 H         -1.5009597629        2.2056736593       -4.4143865558
 O         -1.2092722910       -0.6395470871        1.1879349705
 H         -1.6549556757       -0.1663609943        0.4749194883
 H         -1.7355390105       -1.4380622752        1.3706668564
 O         -0.2333600880       -1.8461239636       -1.3035622095
 H         -1.1463124938       -1.5414738543       -1.4790397600
 H         -0.0881059443       -1.6792289614       -0.3643896288
 O          1.4038696973        4.0618061970        4.1728729228
 H          1.5795179154        4.5728082042        3.3804288691
 H          2.0677340367        3.3649139168        4.2158988325
