  611
      -1033.51970943
 H          3.1200295692       -1.0846666943       -1.1154618789
 C          2.1093107555       -1.2448988852       -0.7359932832
 H          1.7734901901       -2.2533655385       -0.9621368969
 C          1.1532465370       -0.2323478862       -1.3530224361
 H          0.2092301608       -0.2842855325       -0.8124250454
 H          0.9889068554       -0.4821173055       -2.3976712006
 N          1.6565661875        1.1324889732       -1.2619687173
 H          1.9948401793        1.3064398587       -0.3215594484
 H          2.4455433800        1.2491247650       -1.8867185627
 O          2.1050276299       -1.1396957990        0.6844891398
 H          2.4841149790       -0.2783051385        0.9511552760
 O         -2.4860098155       -3.4614036831        0.4603989911
 H         -1.6643574535       -2.9521955521        0.6416776487
 H         -2.5124495561       -4.1546062975        1.1542602298
 O          5.5709126849       -3.9072509300        1.6017288623
 H          4.5927208563       -3.8358572086        1.5443349684
 H          5.8155633101       -3.2920659101        2.3272575523
 O          2.3173028513        3.2873197026       -3.0452271076
 H          3.0571758752        2.9806688347       -3.5781958065
 H          2.6711987070        3.4819034559       -2.1513215951
 O          1.9877997618        5.2780007612        2.1598237954
 H          1.9026339190        6.0053145746        1.5203201425
 H          2.1085374570        5.7235947709        3.0206649484
 O         -3.4323204093       -6.8928141695       -1.4175752623
 H         -2.7083289598       -6.2396611266       -1.3754233868
 H         -3.7429757970       -6.8818863927       -2.3412632027
 O          3.5754002059        0.9702703935        1.3860699348
 H          3.6587316650        1.8790967642        1.7408761873
 H          4.3986012527        0.7896175270        0.8908838969
 O         -3.1406719534        4.1227845290       -0.3075111818
 H         -3.1557355761        3.1400430910       -0.4362376365
 H         -3.2768342146        4.4896839806       -1.1844499085
 O          0.7546611832       -0.9574210484       -5.2215388390
 H          1.6781293354       -1.2405362851       -5.1520456548
 H          0.5501143396       -1.0929821961       -6.1669645195
 O          3.3801656436        2.0892747050       -5.4311725852
 H          3.9190628560        1.8168302408       -6.1931040329
 H          3.1173351299        3.0051113924       -5.6117827024
 O         -0.0977327126       -7.4050871146       -2.0261170551
 H         -0.5023244161       -7.4409272108       -2.9319547338
 H         -0.5283943771       -6.6149817356       -1.6527434325
 O          1.4594428341       -1.7950145352        3.3277073150
 H          1.4807633043       -0.8910337705        2.9769685574
 H          0.8469277754       -1.7425529569        4.0729448886
 O         -1.8270650178       -0.4311958937       -5.0402208793
 H         -1.8465300904        0.2007141411       -4.2953314953
 H         -0.9908169813       -0.9104661209       -4.9448243109
 O          0.9967526057        0.8616434944        2.8661847199
 H          0.1832543276        1.1789632901        3.2937447997
 H          1.2678789542        1.5539290620        2.2451906401
 O         -3.9627610536       -1.6045939024       -3.7897339915
 H         -3.3860475726       -1.3825150432       -4.5457308801
 H         -4.6560411967       -2.1960499017       -4.1338934313
 O          4.5759762908        1.6204259657       -2.1935439409
 H          4.9979288851        1.1405718249       -1.4550227286
 H          4.7428232755        2.5625773986       -2.0430181595
 O          1.3405793601        2.9501097973        1.0180053555
 H          1.4500690434        3.7483014212        1.5666203398
 H          0.5683482238        3.1164198771        0.4676669386
 O         -2.6634302173        4.7675064802       -6.0675145991
 H         -2.3593148333        3.9459159409       -5.6161942687
 H         -3.5923418318        4.6093500956       -6.2632830353
 O         -0.3528516868        4.1151386133        2.9410562182
 H         -0.4484863818        4.5421585160        2.0664337376
 H         -0.3547157149        4.8550109323        3.5730574364
 O          3.2926269899       -3.0497835111        4.7026682466
 H          2.7752084475       -2.5265185888        4.0453967511
 H          2.6244126038       -3.3817138764        5.3222858322
 O          1.9214092405        3.1340244014        4.2972111009
 H          1.1633990533        3.4129574619        3.7635191581
 H          2.2282712450        3.9118581696        4.7762715157
 O         -0.5230957334       -1.0802043034        5.0892543562
 H         -0.8439271341       -0.5539755297        5.8475964739
 H         -0.9442780074       -0.7344678091        4.2702247653
 O          5.6895071326        0.2708502429       -0.1087099249
 H          6.5387478130        0.6627935266        0.1759234672
 H          5.8526170365       -0.6659045550       -0.2735524979
 O          5.8267417534        3.0590898956        0.2592820492
 H          4.8739979734        3.2031922892        0.0861265475
 H          5.9139512593        2.5648381688        1.0938990628
 O         -4.9915180411        3.9592028192        1.6535690609
 H         -4.3630401816        4.1166305455        0.9181481244
 H         -5.3384439709        4.8346588251        1.9009307910
 O          3.3871095994        4.8238466314        6.0611855457
 H          3.0456295147        4.0583780700        6.5588528868
 H          4.3342081590        4.6714457545        5.9128910199
 O          6.1773475175        1.5913141884        2.4767646713
 H          6.9235040201        1.0790412126        2.8095327211
 H          5.6399800543        1.8744280691        3.2265523490
 O         -0.7301052037        4.9617863493        0.3913506440
 H         -0.9439711108        5.9103688176        0.2870758539
 H         -1.5745156112        4.5215774820        0.1519122551
 O         -4.0964507899        0.9041175767        7.0980208071
 H         -3.8659370274        0.8465946306        6.1441236779
 H         -4.1090027112        1.8648148824        7.2897284150
 O          0.5135560471        1.5869017684       -4.3462383871
 H          1.1501293787        1.9610313166       -3.7201695871
 H          0.7191567760        0.6401789867       -4.4857009955
 O          8.2047190067        1.1385790584        0.5775492900
 H          8.8247656004        1.2298529835       -0.1697889070
 H          8.4042061335        0.3098558735        1.0331891016
 O          3.9902912745        3.4523645696        2.3389312476
 H          4.8122038008        3.9710985609        2.4103902576
 H          3.2730651411        4.1021288264        2.3027586858
 O         -5.4556620431        6.1570886976       -2.3651586917
 H         -6.0809657194        5.6396612403       -2.8968954356
 H         -4.6340096036        6.1992901670       -2.8930799612
 O          3.0322998197       -1.8511053336       -6.3098072840
 H          3.9304183421       -1.9519459369       -5.9655879769
 H          3.0056899824       -1.0758302543       -6.8939845754
 O         -4.2332290211        3.4466881300       -2.9767654716
 H         -4.5518721687        3.8105872459       -3.8229547249
 H         -4.2405653784        2.4837316682       -3.0837490187
 O         -4.4127586512       -1.5343550687        0.7471625787
 H         -5.2133058205       -2.0143220821        1.0030698752
 H         -3.7350527477       -2.2283527079        0.6881990557
 O         -1.1012873170        1.6708298332        4.4463208237
 H         -1.5771283877        2.4534234006        4.1200308547
 H         -0.7000536341        1.9438649852        5.2963998530
 O         -1.4625543187        1.9062430191        1.6501470339
 H         -1.1931579790        1.9784313106        0.7145028636
 H         -1.0974146307        2.6686479916        2.1236577719
 O          2.5752377450        6.7158109037        4.3238904873
 H          3.3141605673        7.0090430026        3.7544080302
 H          2.9571511294        6.1634546518        5.0265976763
 O         -0.7567784156       -7.5191184176        4.5141716145
 H         -1.5599313116       -7.0192514145        4.7243476456
 H         -0.8378888292       -7.7730544771        3.5804288844
 O          4.0664717828       -3.7457907537       -1.2671068088
 H          3.5186099947       -3.3866993897       -1.9976980428
 H          3.5873645786       -3.5756892893       -0.4328115413
 O          8.8452188646        4.7189257347       -1.7324462795
 H          9.7681983957        4.6463324632       -1.4791707393
 H          8.7716972473        4.8471131883       -2.6866927824
 O          3.3648336199        3.7069468684       -0.5789095613
 H          3.3669304048        4.6749261189       -0.4781016961
 H          2.6673618315        3.3754393259        0.0220913960
 O          4.0579654086       -0.4183567869        3.6235323831
 H          4.8271294639       -1.0009184971        3.4921153350
 H          3.8395241312       -0.0125627701        2.7555972681
 O          2.0945209270        0.3864599488        5.3248182538
 H          1.6146344634        0.7465642239        4.5541158974
 H          2.8067999282       -0.1337991744        4.9228391659
 O         -3.7908092885       -4.5990191519       -5.8096847500
 H         -4.5551545421       -4.0221173656       -5.6531590028
 H         -3.1882766483       -4.1287046075       -6.4018102574
 O         -1.8900718055       -1.8500778394       -2.0869881640
 H         -1.1045831240       -2.2420817177       -2.5325298150
 H         -2.6506161606       -2.0323529060       -2.6661187964
 O         -4.4187523566       -3.7105196562       -1.5426648787
 H         -4.9827007843       -2.9261724171       -1.6834504070
 H         -3.7749327835       -3.4997759420       -0.8518473203
 O         -2.0212859665        0.7375559756       -2.6545119878
 H         -2.9729915633        0.9036207252       -2.6030128972
 H         -1.8857507050       -0.1970191985       -2.3837800829
 O          1.2364541599       -5.8078406738        4.3043139426
 H          0.5233293310       -6.4636919833        4.5009372777
 H          1.2947008700       -5.2054168786        5.0557766339
 O          8.3598519298        3.6154272905        1.7047568187
 H          8.0907449305        2.7679383066        1.2967180403
 H          8.7477894629        3.3601173144        2.5652851475
 O          8.0310048764       -1.4558185630        1.4125339277
 H          8.4733717595       -2.3097160016        1.5520996622
 H          7.4339725078       -1.6256478884        0.6538106857
 O          3.0209744294       -3.5602382081        1.2395829189
 H          2.7492154937       -2.6264371690        1.2929563317
 H          2.2241142040       -4.0696814675        1.4887288938
 O         -2.8648962928        3.6568180038        3.8479254015
 H         -2.7780706966        4.4017176091        3.2193371551
 H         -3.7973443303        3.6458648872        4.1232099711
 O          2.3578511356        2.4936184959        7.0748870338
 H          2.2760432984        1.8470054322        6.3420838809
 H          3.1110332683        2.1869335998        7.5931469058
 O          4.4366659314        1.9289396105        4.6725432171
 H          3.6074679813        2.3690614299        4.4017732485
 H          4.3403396256        0.9994530501        4.3457946970
 O         -1.9021862753       -0.4001737398        0.0867053964
 H         -2.6076095138       -0.6768799158        0.6785200543
 H         -1.8593397820       -1.0636160098       -0.6227205873
 O         -3.0980918088        6.0527111011       -3.7010091916
 H         -3.0057879027        5.7741956909       -4.6326714751
 H         -2.6534529224        5.3426457685       -3.1981092353
 O         -0.9199959824        7.4831870548       -2.9013548948
 H         -1.7578458102        7.1577423236       -3.2783862399
 H         -0.2386632219        6.8892837803       -3.2372984520
 O         -0.6613787114        2.3140541204       -0.9697363871
 H          0.2632656530        1.9863763983       -1.1571601836
 H         -1.2123058705        1.7320626248       -1.5324045137
 O          5.4815379736       -2.1321347053       -5.0845171760
 H          5.3188490295       -1.7898320115       -4.1684550445
 H          6.1744872706       -2.7938359808       -4.9899947426
 O         10.6229464457        3.7006471816        0.2419587850
 H          9.7640016873        3.8486463365        0.6965712927
 H         11.1431839190        3.2015686855        0.8882431981
 O         -1.7290000952        4.7036971905        6.0303325703
 H         -1.1853760856        5.4420621558        5.7217303427
 H         -2.1214264110        4.3244012662        5.2087912747
 O         -7.2975717579        5.3843425152       -0.4253168089
 H         -6.9102111091        5.9642934780       -1.0892588874
 H         -6.7645445650        4.5674004351       -0.4761619104
 O          7.7673253742       -0.2418964444       -2.1420035281
 H          7.6819142724        0.7288133122       -1.9954856162
 H          8.1540484600       -0.3716201382       -3.0305865679
 O          3.7421595744        6.1242178177       -3.2992265645
 H          4.2764397171        6.8368579132       -3.6479159207
 H          4.3664995706        5.3763889353       -3.0943236785
 O         -0.6542914744        7.7379664903        2.1564989914
 H          0.2670415664        7.7012127581        1.8529071665
 H         -1.1344489764        7.9376452235        1.3380815693
 O         -1.6687099130        7.3814307402       -0.3162840734
 H         -2.6267123867        7.2531469100       -0.3444631773
 H         -1.3591360740        7.5117687620       -1.2365766114
 O          7.3550454766        2.3598461936       -1.7922068928
 H          6.7814904756        2.5267790178       -1.0176979865
 H          8.0145443464        3.0648222332       -1.7672885583
 O          9.4952425499        2.5081792923        3.8892538457
 H         10.3530737248        2.4200083911        3.4479329471
 H          9.0532414020        1.6387243057        3.7605962683
 O         10.0575187922        1.6683570751       -1.3912829396
 H         10.3112233334        2.4689337350       -0.8820816698
 H         10.8399963705        1.0850171576       -1.3939986642
 O          1.2528312049       -4.4096578357       -1.2174778582
 H          0.3786602858       -4.7558968582       -0.9842586763
 H          1.6753989806       -5.0619488860       -1.8060933905
 O          0.7962853638        2.2846024105       -6.8810982068
 H          0.8525577051        2.0600024828       -5.9225877146
 H         -0.0268222777        1.8487593474       -7.1762584734
 O         -5.4149991945        4.1012895276       -5.3347382955
 H         -5.7796051573        3.2055599364       -5.4488087818
 H         -6.1488780057        4.6132126501       -4.9714660806
 O         -3.8443397835        1.4617038629       -6.2445561366
 H         -3.2355301039        1.8292611398       -5.5772322234
 H         -4.7358861365        1.5497955349       -5.8972258978
 O         -5.7735693572        0.4264024253       -0.6203649648
 H         -6.7138046709        0.3553028116       -0.3690039455
 H         -5.2825471399       -0.2958742111       -0.1973360538
 O          0.2294995874       -2.9329036211       -3.1867373306
 H          0.5193202145       -3.4867688155       -2.4345313986
 H         -0.0540907521       -3.5414949413       -3.9120007806
 O          0.7602158837       -4.8441578442        1.8647818133
 H          0.9082075998       -5.6040863576        1.2805663695
 H          0.8818900874       -5.1473497967        2.7876647069
 O         -2.4111548348       -5.5361101304        2.1138367729
 H         -1.7307973671       -6.2186006367        1.9491301011
 H         -2.5515543199       -5.5244422087        3.0847320685
 O         -4.0079152720        1.5569970991        2.2332125073
 H         -4.3495388368        2.4678515712        2.2815373940
 H         -3.0364387344        1.6703907456        2.0960410628
 O         -1.3824390433        0.1625707505        7.3300015507
 H         -0.9693563810        1.0448182895        7.2920708612
 H         -2.3325724050        0.3401378506        7.4209763979
 O          7.9025776145        2.5468092763        6.2179727016
 H          8.5794139926        2.6668641817        5.5358617823
 H          7.5815711775        1.6376205953        6.1220887360
 O         -4.8307634747        0.7680452919       -3.0761456183
 H         -5.2006719580        0.6348446113       -2.1770576053
 H         -4.5537018668       -0.1317224734       -3.3734095150
 O         -3.8964047718       -1.2362718655       -6.6210427639
 H         -3.7573001586       -0.2775818836       -6.5054756148
 H         -4.8107870109       -1.3352897574       -6.8965576701
 O         -8.0011861204        2.4397477427       -2.1303030537
 H         -7.1932279192        2.6934997362       -1.6169418884
 H         -7.8018272478        1.5870493094       -2.5585300655
 O         -2.7638999364        5.8384290845        2.3232652102
 H         -2.0412975037        6.4767467620        2.3758119337
 H         -3.2163454300        6.0010531934        1.4866074583
 O         -6.4123926880       -5.2799915969       -0.7680066730
 H         -6.0742633164       -5.8641058656       -0.0802167139
 H         -5.6440734820       -4.7315832391       -1.0509179097
 O         -7.4761230431        4.6988434852       -3.6270271143
 H         -7.5995037575        3.8418811143       -3.1707096724
 H         -8.3455005867        5.1051969734       -3.6079135758
 O          4.8140094508       -5.1411607291        4.0859116542
 H          4.2782123811       -4.3428945494        4.2761625980
 H          4.2316479703       -5.7591787733        3.6285497129
 O         -8.2303089609       -3.7413300655       -3.3371695659
 H         -8.5379607081       -4.0699998995       -2.4714134151
 H         -9.0001363215       -3.2972821444       -3.7109137280
 O         -4.8986780721       -4.2890295445        5.6559133030
 H         -4.5632980904       -3.4191703601        5.9233493718
 H         -5.8400983053       -4.1731403792        5.4855934721
 O          5.0380811098        1.6036302933       -7.5772558360
 H          5.6931704513        0.9533357959       -7.2564498471
 H          5.4260435517        2.4731078076       -7.3912602564
 O          6.3952355250       -2.4297661800       -0.4151528615
 H          7.1189745833       -2.9100532380       -0.8619180196
 H          6.0177034688       -3.0495641794        0.2511776719
 O          3.8762048135       -6.3719642252       -0.6779829764
 H          4.5507097788       -6.5313211349        0.0119471755
 H          3.9312271741       -5.4139684218       -0.8872538063
 O          3.1153094032       -0.0896752127       -3.8611010930
 H          3.1458147381        0.6278756588       -4.5120059649
 H          3.8336807009        0.0926751005       -3.2445068693
 O         -2.5477413496       -4.1801411741       -3.4280000684
 H         -3.3631723735       -4.0647431452       -2.9111782503
 H         -2.8254758608       -4.4093571775       -4.3280128773
 O         -3.7403008389       -1.8273053807        6.2938596266
 H         -3.6110373338       -1.1761529731        5.5778250550
 H         -3.9389644611       -1.3127583661        7.0782469532
 O         -1.3654953228       -5.1141110451       -1.3186172927
 H         -1.7543600024       -4.4881329219       -0.6715271327
 H         -1.6401494962       -4.7650559921       -2.2034023390
 O         -1.4222329496        0.8521288440       -7.3381890918
 H         -1.5723212804        0.3930401350       -6.4717378229
 H         -2.2690645965        1.2518736725       -7.5483673694
 O         -3.2781571992       -2.6715539721        3.3525045494
 H         -2.7819095147       -1.8787194685        3.0709358164
 H         -2.7611375244       -3.0588193656        4.0755941053
 O          2.2502955347       -6.3643539237       -2.8348324925
 H          1.4482156053       -6.9073334544       -2.7161138275
 H          2.9340712320       -6.7107310085       -2.2457164867
 O          0.2497620329        4.8659695540       -6.3973067790
 H          0.4395125371        3.9362211074       -6.6630908937
 H         -0.6969739451        4.9976026203       -6.5232715974
 O          4.4523051649        7.0122471619        2.3697542581
 H          4.1729150552        6.8318221868        1.4641979578
 H          5.1751713179        6.3839669994        2.5310470633
 O          7.3300744133       -6.1556721035       -0.8876986285
 H          6.8359301658       -6.4113335874       -0.0973513305
 H          6.6817850681       -6.0676824800       -1.6033322002
 O         -7.1936450127       -1.9239846153        0.8056041440
 H         -7.0060693195       -1.0588003902        1.2085667268
 H         -7.9331116406       -2.2768422463        1.3224841583
 O         -6.5159262052        6.1571303855        2.0273029823
 H         -6.9295355720        5.9553523346        1.1614726812
 H         -7.1603314279        5.8720642193        2.6859003308
 O         -9.8245744399       -4.6936089232        1.6040845578
 H         -9.8421396678       -3.8034024099        1.9925808617
 H         -9.0174688139       -5.0924591865        1.9675396910
 O         -6.5364408143       -2.1074706384       -1.7951306699
 H         -7.0752833932       -2.7643869856       -2.2604889490
 H         -6.8253024102       -2.1013016714       -0.8587529839
 O         -1.5786477070       -0.6713325810        2.7304107927
 H         -1.4630939952        0.2082074068        2.3327916641
 H         -1.0019731636       -1.2680226832        2.2069863370
 O          3.1028487933        4.8177218192       -5.6439961511
 H          2.2783663736        5.0591869632       -6.0773154768
 H          3.1327245299        5.2988734198       -4.7943324689
 O         -1.9668752134        2.6352538390       -4.6428147416
 H         -1.0890034949        2.2129421577       -4.6144529378
 H         -2.0160173112        3.1329300679       -3.7983966194
 O         -9.1154229207        2.0235072083       -4.8244046530
 H         -9.3606515928        2.9470028448       -4.7215420013
 H         -9.6079123420        1.5606878647       -4.1064624656
 O          8.4599226982       -3.8126132958       -1.4449861796
 H          8.3793377677       -3.7087101041       -2.4053746353
 H          8.1489018260       -4.7200765808       -1.2389454922
 O         -6.6532418535       -0.8942908106       -6.3637028033
 H         -7.6101573588       -1.0040994188       -6.2861459016
 H         -6.4741471035       -0.0109582175       -5.9872022685
 O         -5.6512889092       -1.6535448278        4.0341418106
 H         -4.7755732180       -2.0416964936        3.8171933736
 H         -6.2656798960       -2.3909095775        4.2119009598
 O          0.6734696360        5.2217737783       -3.7872023039
 H          1.3255784976        4.5114703183       -3.5821331791
 H          0.5007062986        5.1535532089       -4.7501361176
 O         -6.2966811815        0.1778969013        2.2910123276
 H         -5.4271041713        0.5405615470        2.0522817737
 H         -6.0906689536       -0.5513643001        2.9243063804
 O        -10.5711924575       -2.1817280189       -3.4047091285
 H        -10.2557023639       -1.8616088409       -2.5309554456
 H        -11.4684012378       -1.8601947611       -3.4927521386
 O        -10.3366979446        0.6097721544       -2.9142697405
 H        -10.6827342857        1.0823677803       -2.1312148840
 H         -9.4962161778        0.2112269079       -2.6382697853
 O         -9.0985920267       -0.8494185873       -5.2584886238
 H         -9.7313605625       -1.3027787270       -4.6697998671
 H         -9.4325853691        0.0421911694       -5.4012224737
 O         -6.4234505809        1.5503207511       -5.0904247768
 H         -6.0328353186        1.2432863317       -4.2388726457
 H         -7.3792576530        1.7058010763       -4.9501597842
 O         -5.1894505937       -3.9756212647        1.7797042960
 H         -4.5078777693       -3.6778181008        2.4011694914
 H         -4.8747488927       -4.8110664521        1.3917874199
 O          7.6926263400       -3.7008201135       -4.1462654975
 H          8.1110248681       -4.3394018322       -4.7228277937
 H          6.9563008204       -4.1912771990       -3.6757511913
 O         12.0435301486       -0.1607531627       -1.1601434784
 H         11.3111342665       -0.8048520903       -1.2038745876
 H         12.3269330461       -0.1747122232       -0.2430789186
 O          6.2084799629        4.9357428038        2.7065625843
 H          7.0032569665        4.5435583230        2.2966594270
 H          6.2586826687        4.7624212607        3.6646570243
 O          9.0848985919        1.9396167299       -3.9385608462
 H          9.2652772461        1.1040040691       -4.3765947652
 H          9.4496326467        1.8606042773       -3.0344827157
 O          5.3323221784       -1.2497146971       -2.6199135855
 H          6.2026650640       -0.8303274749       -2.4479355512
 H          5.2614591255       -1.9606434926       -1.9702606666
 O         11.5882438987        1.9074898673        2.1717308649
 H         11.2590515140        1.0176473242        1.9028264020
 H         12.5043863742        1.7935156378        2.4209715810
 O          7.0592840540       -0.1246524249        6.0497831249
 H          7.6691976394       -0.5610289226        6.6455688269
 H          6.2700145594       -0.7257797684        6.0120087135
 O          8.8314098405       -4.0213861045        1.8155511779
 H          8.2256225129       -4.4696109290        2.4411437810
 H          8.7891965217       -4.5068507909        0.9896072619
 O          5.8062936682       -4.9816811099       -2.9049301102
 H          5.1207355789       -5.1012840369       -3.6109247977
 H          5.3465027907       -4.4467437747       -2.2329138202
 O         -7.3816007528        2.7841566349        1.5718449715
 H         -7.4008040141        1.8425762095        1.3572219983
 H         -6.4677683830        3.1176332495        1.4344110966
 O         -4.1844388338       -6.6898652654       -4.0249531281
 H         -5.1424680827       -6.6905600105       -3.8389453964
 H         -4.0751631668       -6.0526172747       -4.7458476833
 O         -7.6521541267       -0.0611553819       -3.0413204961
 H         -7.9503056837       -0.4353449813       -3.8848629020
 H         -7.1483381368       -0.7547232764       -2.5656619666
 O         -0.8205383803       -7.6597440868        1.7511745066
 H         -1.2757324146       -8.1914698213        1.0535053236
 H          0.0888019662       -7.5693195869        1.4457094221
 O          6.6747809686       -0.0160056295       -6.1401615592
 H          6.1370135371       -0.7967030724       -5.8871544513
 H          6.4778297818        0.6609306402       -5.4494369776
 O          3.9065847802       -0.9525883874        8.1725189339
 H          4.1673017015       -0.0408539819        7.9633254288
 H          2.9555628218       -1.0292716359        7.9907954278
 O          2.5342504973        0.3762538464       -7.8698183441
 H          1.9764678953        1.0966190081       -7.5115038987
 H          3.3928085782        0.7800274647       -8.0470225104
 O          5.6398585846       -6.5409394472        1.3479642839
 H          5.0058895051       -6.9076087075        1.9758404991
 H          5.6831983904       -5.5763692291        1.5481950951
 O          1.3978150696        5.6311037874       -1.1125208783
 H          0.6118779542        5.2364286669       -0.6937146365
 H          1.2168805361        5.7378770932       -2.0492113596
 O        -10.8269380878       -0.0408896690        1.4859860854
 H        -11.7218178859       -0.0424286291        1.8272977408
 H        -10.3030555800        0.5153581082        2.1217047573
 O          4.0049398131        6.4194661554       -0.4376582822
 H          4.9577634032        6.2344230230       -0.4542476069
 H          3.7096195673        6.4655029058       -1.3585704919
 O         -9.6597700482       -1.5345200772       -0.9159126649
 H         -9.2258155803       -2.4108643368       -0.7696899198
 H        -10.3633703146       -1.4592136701       -0.2678753116
 O         -8.9075572460       -0.9775265173        4.8574209937
 H         -9.3345273417       -0.1551469032        4.5811700410
 H         -8.1442818525       -0.7187774102        5.3921890420
 O          5.2674423075       -2.0246507052        6.1938083231
 H          4.5779758001       -2.3318293905        5.5688282969
 H          4.7794163687       -1.7521615160        7.0062196239
 O         -1.4705670481        4.2489235052       -2.5771678461
 H         -1.1510719015        3.6200956248       -1.8947673606
 H         -0.6696433183        4.6172582575       -3.0052105127
 O         -5.9288767034       -3.0439750567       -4.9028609535
 H         -6.2161349343       -2.3053225217       -5.4781603341
 H         -6.7058655795       -3.3569946716       -4.4257123235
 O          9.7073156928       -2.1600468126        3.7287105860
 H          9.1558243018       -2.4241906659        4.4810753679
 H          9.6559066748       -2.9044756531        3.1143905512
 O          7.3713365087       -5.2226299327        3.7489732438
 H          7.5768502227       -6.1501548431        3.8582356216
 H          6.3780995128       -5.1561104409        3.8039574832
 O          6.2285494483       -1.9516031911        3.2614731773
 H          6.8885838507       -1.5555340393        2.6483840196
 H          6.7170197403       -2.2488446616        4.0465446022
 O         -4.0842731314        3.5799268334        7.1238217037
 H         -3.2421176181        4.0328761898        6.9796850443
 H         -4.6145362882        3.7517090259        6.3316364392
 O          0.2085288115       -1.2299739718       -7.8835106599
 H         -0.4031670289       -0.4763228593       -7.9428704459
 H          1.0708068974       -0.8991816922       -8.1638277274
 O          8.6636242368       -0.9104175737       -4.5862586226
 H          8.0408974992       -0.5820071608       -5.2749689688
 H          8.4869127901       -1.8531036625       -4.4989992074
 O          5.9305731188        4.0876444605        5.2553647860
 H          5.4183612843        3.3178528805        4.9478336388
 H          6.7007428513        3.7071113293        5.7185489458
 O         -8.3329710799        0.6746222446        0.0129590745
 H         -8.5383856299        1.3638858546       -0.6369966973
 H         -8.7862931732       -0.1338336653       -0.2796523475
 O          3.7860726356       -4.9655667484       -4.5772869130
 H          3.5066438949       -4.0616704808       -4.3003029102
 H          3.1700302289       -5.5592557831       -4.1179585384
 O         -7.3328437560       -5.2159297063        2.6397841488
 H         -6.9605241505       -6.0922790847        2.7439134707
 H         -6.6017420309       -4.6594726153        2.2622220154
 O         -4.3344865211        6.6832415485        0.1069204480
 H         -4.7512349530        6.4803269205       -0.7468141883
 H         -5.0330182890        6.9269784377        0.7200909719
 O          4.8725508016        1.5187955268        7.3125225057
 H          4.7489111741        1.6272732826        6.3433380534
 H          5.7743843074        1.7796888353        7.5009961040
 O          1.9393993771       -4.3421135656       -6.5601604133
 H          2.6660262633       -4.7667853093       -6.0823691548
 H          2.1947257676       -3.4035602402       -6.6065362087
 O          7.6368475095       -3.0246076362        5.3706869418
 H          7.5729167997       -3.9114525804        4.9789100308
 H          6.8159350422       -2.8811110000        5.8768749122
 O         -0.3414648120        2.5807954441        6.8322345238
 H         -0.7752839432        3.4483258418        6.6876778070
 H          0.5987260237        2.7291861495        7.0144319032
 O         -5.4215581682        3.7934360180        4.6677346336
 H         -5.8108314436        4.5722558829        4.2647415262
 H         -6.0244207698        3.0378986077        4.4805420169
 O          6.5363981719        5.4642546387       -0.5074627868
 H          6.3915182233        4.6640595203        0.0429238477
 H          7.4651397652        5.4268907886       -0.7735734500
 O         10.8777312876       -0.5805698406        1.5566694268
 H         10.3457476652       -0.8900577871        0.7976598350
 H         10.5815769399       -1.0824112039        2.3231029108
 O          1.2650469105       -1.1791702368        7.3210961376
 H          0.4180382899       -0.8595090912        7.6469868427
 H          1.4694045713       -0.6210730465        6.5362837930
 O         -9.4446180618        3.8064850429        0.2336132665
 H         -9.0408304630        4.5621241666       -0.2113269986
 H         -8.6914792419        3.3729695374        0.6935764285
 O         -1.2600839186       -6.9951337544       -4.3172431673
 H         -2.2230984901       -6.9730172648       -4.2858271782
 H         -0.9614548756       -6.1294291029       -4.6596597086
 O         -5.8330944566        3.1410145830       -0.9167539884
 H         -5.5427579831        2.2471144104       -0.6636184541
 H         -5.2183395237        3.4072368362       -1.6404238489
 O         -1.8207364723       -8.8320837104       -0.3939044282
 H         -1.1191572042       -8.6413222780       -1.0361303190
 H         -2.5843335928       -8.3202335942       -0.7170089692
 O         -1.7962565097       -2.9474565216       -6.8418578006
 H         -2.4485700515       -2.2324293549       -6.7318331210
 H         -1.0616612272       -2.5615374553       -7.3354220373
 O         -0.1467571182        6.3611457196        4.4889719402
 H         -0.4578478004        6.9861017609        3.8171117844
 H          0.7952171086        6.5638193082        4.5993625410
 O        -10.1374113761        3.9968865352       -2.9342068181
 H         -9.5240326678        3.4020044843       -2.4701502928
 H        -10.9950803334        3.8434510388       -2.5386032007
 O         -3.3974380182        0.3457125383        4.6054365742
 H         -2.4914465988        0.7289320793        4.5891335140
 H         -3.7943140475        0.6705107864        3.7803581118
 O         -2.7604436848       -5.6292151384        4.7363053890
 H         -3.6431397135       -5.3625139549        5.0519393823
 H         -2.1721770819       -4.9279602741        5.0650716643
 O         -8.7456039750       -4.0040897909       -0.7046481880
 H         -7.8576060497       -4.4046372021       -0.5954901240
 H         -9.2686929648       -4.3527932675        0.0525026814
 O         -4.6129033511       -6.5014464321        0.9532851561
 H         -4.2759522964       -6.7516484846        0.0705877149
 H         -3.8019205870       -6.3626856367        1.4807850158
 O         -6.7716706491       -6.2851633620       -3.2876658459
 H         -6.6717149331       -6.0652105579       -2.3433742208
 H         -7.2723546245       -5.5574088152       -3.6667627421
 O         -0.3234137181       -4.5482185465       -5.1904987596
 H         -0.9330190580       -4.0264514918       -5.7418459717
 H          0.5165444188       -4.5632486328       -5.7074505903
 O          7.8152650707        4.3806063132       -4.2924723953
 H          7.2698498169        4.3717860551       -5.0963083905
 H          8.3055144616        3.5417148260       -4.3018007957
 O         -7.4281211818       -3.5460277379        4.7386296511
 H         -7.5710204001       -4.1745442728        4.0025588422
 H         -8.2469912865       -3.0712600209        4.8991668932
 O         -0.2348425078       -2.4108729145        1.2332073785
 H          0.1191824391       -3.2413996800        1.5924302362
 H          0.5436259925       -1.8754307923        1.0004545547
 O         -1.6122292120       -3.3416046268        5.5297782996
 H         -1.1348535021       -2.4876609044        5.3028326257
 H         -2.3001267970       -3.0537017830        6.1462234148
 O          3.1566085235       -6.9555768125        2.7606855244
 H          2.4929768392       -6.6626088579        3.4129115019
 H          2.6561817398       -7.1720788374        1.9671051709
 O         -6.4546530208       -0.0305094352        6.0231223846
 H         -6.0163064401       -0.6430544739        5.3953766231
 H         -5.7460600033        0.3074070064        6.6012690270
 O        -11.0435732068        1.8137287616       -0.6386116481
 H        -10.5143102125        2.5848905903       -0.3629477887
 H        -10.9470953473        1.1628353588        0.0730368167
 O          6.1967366214        1.7696865028       -4.2749800579
 H          7.0372886131        1.9449065703       -3.8241372928
 H          5.5392487294        1.6419616435       -3.5523803160
 O          8.2330693590        0.1820577677        3.6774924257
 H          8.7985378411       -0.5941678101        3.5378292684
 H          7.7685193191        0.0361376963        4.5268297799
 O          2.8748445794       -2.7356799179       -3.4530917570
 H          1.8958068297       -2.7450746979       -3.4769412883
 H          3.1169245112       -1.8127405410       -3.6487568275
 O         -9.6993977374        1.3591358441        3.4058462047
 H        -10.1397111602        2.2218816676        3.2256873505
 H         -8.7649390802        1.5767223350        3.5858940954
 O         -8.1031153855        4.4426330158        3.5938214729
 H         -8.0757891400        3.9662796165        4.4263077121
 H         -7.8484717072        3.7892926065        2.9070270627
 O         -7.1119398752        1.7857637908        4.2254917179
 H         -6.7922922084        1.2740463540        3.4440501620
 H         -6.9333879921        1.1943010362        4.9924447940
 O          1.0926472958       -3.6992390013        6.2489935394
 H          1.2120593468       -2.8615786672        6.7389706908
 H          0.1447722280       -3.7323382971        6.0538652882
 O          1.6586260779        7.5384785538        0.6879211448
 H          2.5099167701        7.9710830756        0.6219532450
 H          1.5673350604        6.9725332111       -0.1131662670
 O          1.5203518203       -7.0240316147        0.3295587074
 H          1.0273593140       -7.3458150856       -0.4357667616
 H          2.3961334920       -6.7352993998       -0.0308177470
 O          5.5012181635        4.2920716868       -2.6970408899
 H          5.8427622701        4.6833126139       -1.8643567720
 H          6.2806030118        4.2383980413       -3.2786465850
 O         -9.3421548166       -2.1457251310        2.4422870548
 H         -9.1025527119       -1.8062953073        3.3234099395
 H         -9.8799439148       -1.4440888930        2.0387372747
 O        -10.6273098349        3.7608889813        2.7141914781
 H         -9.9331619782        4.2902974469        3.1367614142
 H        -10.4427064969        3.8326459609        1.7617212835
 O          5.7662631538        3.8088289998       -6.0324353957
 H          5.7663105444        3.0748756780       -5.3808054878
 H          4.9113650255        4.2505393247       -5.9434420315
 O         -3.4938182718        1.5802478587       -0.4597180159
 H         -2.7693976172        0.9200908037       -0.4058799450
 H         -3.9207188152        1.5118655054        0.4053291684
 O          9.7220870859       -1.4620894980       -0.7854008129
 H          9.4783163657       -2.3847566079       -0.9294583811
 H          9.0143934099       -0.9385559622       -1.2280156554
