  459
       -779.13830431
 O         -0.4301710164       -3.9344240423        0.6857052803
 H          0.4761066742       -4.1670214818        0.9845362424
 H         -0.9767988056       -3.7941780901        1.4684271052
 O          0.6486265112        3.1612644298        1.3230100949
 H          0.9073205699        3.8071900736        0.6461844512
 H          1.3358913194        3.2311427689        2.0067485875
 O          1.5717950163        1.1194377440       -2.7079718497
 H          1.2845766988        2.0274511905       -2.8854077308
 H          2.2988634248        1.2005637322       -2.0522467523
 O         -3.7639571134       -5.7499833123       -0.4309100309
 H         -3.4103857856       -4.8493269992       -0.6319203703
 H         -4.6987668803       -5.7422396813       -0.7026913012
 O          2.6561700267       -5.5758204492        3.3784172378
 H          3.1404558349       -4.9470444020        3.9323103884
 H          2.5527871736       -5.1487047403        2.4950773695
 O         -2.3618504501       -3.4449758858        2.6617463461
 H         -2.9838593028       -2.9450941548        3.2303108371
 H         -2.6970998854       -4.3657715114        2.6568470799
 O          4.2370662092       -1.8086295194       -0.1491155400
 H          5.1156732042       -1.6273471081       -0.5082972828
 H          4.3381817008       -2.3448205119        0.6484468874
 O         -5.1027093750        0.5120306141        4.9545378870
 H         -4.6422341247       -0.3313936043        5.0357446727
 H         -4.4111577542        1.2058154457        4.9620541995
 O          1.8270708889       -1.8191117260        1.8008825888
 H          2.6001655772       -1.4532241834        2.2669593967
 H          1.7942225424       -1.4265709086        0.9124765487
 O         -0.0678970207        4.1468242510       -1.0623314644
 H          0.7578587352        3.9131449344       -1.5172077954
 H         -0.1193631303        5.1154352263       -1.0971397851
 O         -3.9328817875        1.7399597883       -0.4222721493
 H         -3.3619598580        2.1601079357        0.2274968345
 H         -4.2069405487        0.8722878054       -0.0720259330
 O          4.9834458228        2.4516177641       -3.5822582314
 H          5.8035872809        2.4706363341       -4.1395707776
 H          4.8383410024        3.3444192026       -3.2391461398
 O         -0.7387073460       -4.9625958868       -3.4720540039
 H         -0.5041335592       -4.2423215919       -2.8430321338
 H         -0.6961178631       -4.5347983833       -4.3467341888
 O         -2.3690843747       -2.3414867094       -3.6742379178
 H         -2.1980049934       -1.3933723448       -3.8175502710
 H         -2.6231926825       -2.7035091649       -4.5453520239
 O          0.1674886698       -3.0816512220       -1.8242674736
 H         -0.2456687799       -3.3501369257       -0.9871956060
 H          1.1134716518       -3.3363155399       -1.7503816877
 O          1.8696923166       -0.9613860187       -0.7958176629
 H          1.7386972876       -1.3039770944       -1.6915674807
 H          2.8111607416       -1.1654779331       -0.6135066245
 O          1.6386187349       -6.1345380099       -2.9388749188
 H          0.7069723955       -5.8803442577       -3.1209388361
 H          1.6133351787       -6.8110167282       -2.2534545245
 O         -4.7325450082        6.1479738374       -0.1733638095
 H         -5.0447228447        5.4599932967       -0.7762036323
 H         -5.2039646302        5.9643436656        0.6608587170
 O         -8.3800003275       -1.7143145264       -2.6788393960
 H         -8.4452154233       -1.5043450512       -3.6239651779
 H         -7.7265822983       -1.0484193242       -2.3412293868
 O          2.0271152189       -1.6892980140       -3.6002660264
 H          2.1160469095       -2.6147338275       -3.9078874484
 H          1.5000612421       -1.2538136246       -4.2867437335
 O         -2.0108310411        3.4643673095        0.7250949371
 H         -2.2161245643        4.3557695679        1.0820064451
 H         -1.1841569046        3.5718182697        0.2163926256
 O         -6.3379274267        3.3221304634       -4.1642420140
 H         -5.8498996258        2.6749838575       -4.7288607396
 H         -6.3161443988        4.1556169545       -4.6335889975
 O          4.7047076255       -3.3667090445        2.1051469998
 H          4.3564407817       -3.2115834338        3.0033455565
 H          4.8936263107       -4.3257192686        2.0597243326
 O          5.4310253725       -1.6191769611        5.9763870874
 H          4.6891516534       -0.9913833035        6.0141380659
 H          6.0478211997       -1.3625063896        6.6611553874
 O          8.5145643786        0.5531767400        2.0366210004
 H          9.2928247713        0.1431075594        2.4707458901
 H          7.7402438505        0.0844872744        2.4100543536
 O         -3.2163421898       -3.1774309335       -6.0538914909
 H         -3.9005508837       -3.8388370552       -5.7502019808
 H         -2.4398067704       -3.6883246886       -6.3072905738
 O          5.8938248649        0.6079688631        0.8229322105
 H          6.1971770998       -0.3102118171        0.9524567500
 H          5.5227065834        0.9128148014        1.6628558765
 O         -3.4449046101        2.6321203404        4.8572426836
 H         -2.8344227916        2.6556017468        4.0934606751
 H         -3.9662854102        3.4617773268        4.8140739200
 O         -2.5346410533        5.9293918954        1.4541382561
 H         -3.2557838751        6.1679924471        0.8433895122
 H         -1.8167186464        6.5799792161        1.3670559041
 O          2.7771193017        3.4115392025        2.9097319649
 H          3.4111625627        4.1365781284        2.7373443192
 H          3.0923930295        2.6141129617        2.4423190867
 O          1.6480992044        6.1344825345        2.4622167581
 H          1.8676412131        5.6552693319        1.6217682546
 H          2.5036350080        6.3151708093        2.8621206082
 O         -2.0564425547       -0.9120124039       -7.1979625545
 H         -2.5880597077       -1.6797370064       -6.9534934151
 H         -1.2512945463       -0.9583478412       -6.6574944577
 O         -1.5262293014        1.8426197757       -2.1873903797
 H         -1.8727247730        1.2022552806       -2.8415975865
 H         -2.1799859859        2.5556227808       -2.0642536779
 O          7.1670897693        4.8566851177        2.2605153285
 H          7.5626084456        5.6272928076        1.8537753971
 H          7.2511798558        4.1214142128        1.6093989119
 O          9.3597543548       -2.7209859850        1.6822247522
 H          9.4425955937       -2.2522431332        0.8260475225
 H          9.2607903818       -3.6620690281        1.5197870981
 O         -4.9148149682       -4.7901698876       -4.9480416149
 H         -5.5042369205       -4.3007875537       -4.3516043413
 H         -4.3237350518       -5.3137109381       -4.3666905613
 O          2.1628193852       -4.3381507451        1.0976213687
 H          2.1995450496       -3.4049721367        1.3947173537
 H          2.4649663065       -4.3357399269        0.1673616302
 O         -4.5390947868       -1.5829942443       -2.4210408449
 H         -4.3603821290       -1.1078404796       -1.6033368124
 H         -3.6771272680       -1.9283606408       -2.7507334006
 O         -4.8298006924        4.9189968268        4.6522658190
 H         -4.0007461682        5.4342483936        4.7152781113
 H         -5.1794664018        5.1421364041        3.7700841934
 O          3.0693803903       -0.2582405251        5.7397904948
 H          2.4951423352       -1.0528731937        5.7105173801
 H          2.4896762161        0.4381637613        6.0668094812
 O         -6.9292665708       -2.6517243753       -0.3620990133
 H         -5.9755313138       -2.6768732651       -0.2337152241
 H         -7.2815395101       -3.4656623762        0.0298095156
 O         -6.4048596831        0.0717885014        2.6339391900
 H         -5.9018572977        0.2427475473        3.4558111340
 H         -7.2959703914        0.4519687941        2.7794339354
 O         -6.2003154380       -5.7270237092       -1.6568475283
 H         -6.1054036569       -6.4025518797       -2.3294152509
 H         -6.2358987243       -4.8588196511       -2.1397488131
 O         -0.2285328766       -1.8166872002        3.4653965529
 H         -0.7893974666       -2.5905299883        3.3015846108
 H          0.4609380159       -1.8040157859        2.7694236626
 O          7.4530314946        2.8240047882        0.5773761075
 H          8.4139984267        2.6091875809        0.4785348510
 H          7.0029794032        1.9623083251        0.7050215885
 O          0.0508645782       -0.6825053485       -5.3182067418
 H          0.1739661171        0.2289229374       -5.6462277220
 H         -0.3670743401       -0.5852033520       -4.4348192813
 O          8.8089877511        1.8975846037       -2.6211446237
 H          7.9670711930        1.5837809064       -2.2226005413
 H          9.3251788172        1.0885160232       -2.7894725261
 O         -6.6307640728        2.7696388449        4.2382046406
 H         -6.2187177529        3.5123059287        4.6984591057
 H         -6.5076400843        1.9876622840        4.7881159917
 O         -4.8570275481        2.5317941196        2.1666849335
 H         -5.4256413003        2.4841501336        2.9578220048
 H         -5.4267158277        2.2371685531        1.4206316540
 O          2.6014347610       -4.0408695116       -1.5444907858
 H          2.3619013372       -4.8545747885       -2.0317192650
 H          3.4372026335       -3.7207263452       -1.9420331767
 O         -0.1952599993        6.8875971353       -1.0831469076
 H         -1.0917834057        6.9155936218       -1.4801504592
 H         -0.2617511873        7.2711955572       -0.1986502413
 O         -4.3266030587       -2.0126667190        3.8091558471
 H         -4.2038636389       -1.2759556926        3.1696597845
 H         -5.2285931463       -2.3269604124        3.7123568484
 O          0.0650836957        3.1321559295       -3.7840993758
 H         -0.5383037999        2.6746651158       -3.1519072257
 H         -0.3388469669        4.0073794387       -3.9225509626
 O          3.0263378698        1.2518455331       -4.9093529364
 H          2.3895107322        1.0718125529       -4.1788653296
 H          3.8091707585        1.6132584722       -4.4406806586
 O          5.0818930223       -6.0502407766        2.1061685442
 H          4.7849883942       -6.2010268365        1.1844833166
 H          4.3390256838       -6.3080164372        2.6679689526
 O          2.3352501511        4.9402433346        0.2265526246
 H          2.3981585864        5.5283803927       -0.5475939467
 H          3.1613698686        4.4316660566        0.2830279334
 O          3.8740842413       -0.7027360173        3.1755378548
 H          3.5608560206       -0.4635325812        4.0648564079
 H          4.8549213196       -0.7155540576        3.2258875639
 O          7.4012189213        4.2186508081       -1.7112020828
 H          7.9977384789        3.7699823544       -2.3182402080
 H          7.4393648015        3.6892804890       -0.8865580211
 O          5.3130225823        2.2485111030        2.8919650935
 H          4.8960693956        2.3137577120        3.7661720911
 H          6.2599716826        2.3931346340        3.0812623201
 O          6.7158696676       -1.4719375508       -1.4738661595
 H          6.5479261647       -0.5357115153       -1.6967900261
 H          7.1604400606       -1.8498478615       -2.2698543096
 O          4.3541680061       -0.6000373819       -2.8845962236
 H          3.4950843041       -0.9303988191       -3.2212807539
 H          4.1480720822        0.0216552675       -2.1696252566
 O         -7.8688343812       -0.7704732487       -5.1738687621
 H         -6.8947457700       -0.8770273751       -5.1197661576
 H         -8.1075562906       -0.8459794641       -6.0972084063
 O          6.2208119116       -0.3413981589       -4.8173032840
 H          5.6758489835       -0.5821542773       -5.5764704857
 H          5.5944068311       -0.3509459958       -4.0614335896
 O         -0.4000278350        7.6189791911        1.5726031824
 H          0.3503562949        7.1049524136        1.9445891204
 H         -0.5662806210        8.3428156390        2.1766035910
 O         -8.2067304494        3.6240755522        2.0839999194
 H         -9.0819502050        3.2530041735        1.9112829236
 H         -7.9044132817        3.2311550049        2.9207682835
 O         -0.7308695877       -3.8646209780        5.9512187434
 H         -0.5233723365       -4.1852907781        5.0400484470
 H         -1.3629041143       -4.4782538011        6.3220422847
 O          1.5375482385       -7.9017616844        2.2831665932
 H          1.9666931390       -7.2183429016        2.8135018434
 H          0.5906962625       -7.8070121440        2.4517032313
 O          3.5765906773        1.2910792403       -0.9699291281
 H          3.2725280132        1.0011388982       -0.0899757531
 H          3.9248915286        2.1776921335       -0.8016315971
 O         -2.5386496215       -3.5906111530       -1.2519072620
 H         -2.3702721071       -3.4728495934       -2.1955892624
 H         -2.6252530111       -2.6969807969       -0.8904183471
 O         -1.3243707756        2.6717388097        3.2249434595
 H         -1.5163740880        2.9001252497        2.2931989498
 H         -0.8547521962        3.4483895069        3.5970910175
 O         -0.3241951947       -3.4967226577       -5.7424140618
 H          0.5931150304       -3.8081882911       -5.6529652892
 H         -0.2666472842       -2.5456806578       -5.5778001295
 O         -5.7783370339        3.7917748161       -1.5274885634
 H         -5.9853326363        3.5232457646       -2.4457168135
 H         -5.9213809708        3.0107535775       -0.9574533296
 O          0.8119772086        0.9998304064        3.3583718798
 H          0.1366400084        1.6872068140        3.2177067593
 H          0.8470179017        0.8439023656        4.3168019358
 O          0.0965350824        1.9202704539       -6.0689367103
 H          0.0779362293        2.3650513348       -5.1747748379
 H          0.7639385666        2.4070370957       -6.5601758550
 O          2.1507395024       -4.0901387049       -4.7998440069
 H          2.1379382377       -4.9137068338       -4.2993117293
 H          3.0670935105       -3.9879991324       -5.1575461157
 O          3.9243371442       -0.8839420799       -6.2397407738
 H          3.5299799677       -0.1345559511       -5.7369590716
 H          3.4094879031       -0.9858457059       -7.0388984489
 O         -6.3100154911       -3.4710956513       -2.9869101981
 H         -7.1544026528       -3.0032762299       -2.8535210279
 H         -5.6370469475       -2.8354083336       -2.6608771297
 O         -6.0541626087       -4.5540139205        2.2248777507
 H         -6.5384957840       -3.8158360397        2.6541027488
 H         -6.7147440142       -4.9886256237        1.6680289980
 O          6.7501010801       -1.9619988488        1.1791689089
 H          7.6169483240       -2.1941106463        1.5463240856
 H          6.0772256915       -2.4434052889        1.6972742976
 O         -4.3691964531       -3.0048876552        0.8007293251
 H         -4.9695488800       -3.5865894514        1.3109497850
 H         -3.5119126943       -3.0807115789        1.2455903131
 O          1.5244401072       -2.3949661039        5.3670221928
 H          0.8748388644       -2.1456820722        4.6637234428
 H          1.0156123338       -2.9306277215        5.9841319085
 O          2.1464291403        3.2379494348        5.4580869727
 H          2.2965670169        3.2388055417        4.4828657789
 H          1.6176023536        2.4597676512        5.6700390339
 O          2.7927660660        1.0646549127        1.5752391341
 H          1.9641762313        1.0250634244        2.0889781304
 H          3.3790923594        0.4451540625        2.0513793546
 O        -10.5326746620       -0.2997089407       -1.7347826109
 H         -9.8237587450       -0.8910626561       -2.0495977858
 H        -10.1097120871        0.5734861199       -1.7117102067
 O          6.3879194969       -4.1813106445       -0.4794691777
 H          5.4918508789       -4.5043000319       -0.3224981410
 H          6.4343966072       -3.2483679995       -0.2025588394
 O         -9.7547685876       -3.2301978816       -0.7019704502
 H         -9.0667173998       -2.7686612245       -1.2110483581
 H        -10.5843964532       -3.0349457434       -1.1396788777
 O         -1.0940221521       -6.8966659625        2.3990084428
 H         -1.0189933595       -6.7848750822        1.4238453619
 H         -2.0377609411       -6.8065022512        2.5836059438
 O         -4.5638591977        1.5234015212       -2.9669924530
 H         -4.2347966601        1.6358509180       -2.0518819151
 H         -5.4118433812        1.0565933909       -2.8562180970
 O          2.3496871417        3.7286667110       -2.3439854601
 H          3.2040660872        4.0994297818       -2.1087634928
 H          2.0521521789        4.2180766329       -3.1314680906
 O          4.6616964569        6.5550794096       -0.0806144895
 H          3.9765309425        7.1469170479       -0.4024011930
 H          4.7929632971        5.9159733257       -0.8001460953
 O          4.6119510171       -3.4844089217       -5.4353529234
 H          4.4736219666       -2.5663887277       -5.7106026455
 H          4.9025738958       -3.4541182332       -4.5061559109
 O         -5.2653255515        1.5703038040       -5.8553282322
 H         -5.2425341620        0.6571958775       -5.5234745087
 H         -4.4191661152        1.7154121788       -6.2928222638
 O         10.0782413877       -0.4824186449       -2.6210684261
 H         11.0226708493       -0.6320195279       -2.6151534713
 H          9.7610027381       -0.6590238180       -1.6984254143
 O          9.9246956242        2.3522107562       -0.0792131053
 H         10.4711695184        1.6138152065        0.2421521619
 H          9.7624504166        2.2078890109       -1.0251641284
 O          6.4882478900       -0.5829827971        3.4563212977
 H          6.7324577977       -1.5060648382        3.6560065685
 H          6.5667761982       -0.0834351517        4.2955134992
 O         -8.3468467420        4.4521065008       -0.8148444427
 H         -7.4029577037        4.4321256257       -1.0533820485
 H         -8.3985821305        4.5612704645        0.1373658508
 O         -8.8843534197        1.9286704558       -1.6270909318
 H         -8.9049691115        1.9170619340       -2.6156158873
 H         -8.7749793077        2.8726605643       -1.3905859166
 O        -10.0605694477        1.8393467091        0.9602648097
 H        -10.7944864902        1.2062438829        0.8914350018
 H         -9.5703210036        1.7521538316        0.1265279440
 O         -1.0077390123       -6.3297941195       -0.2236754851
 H         -0.8839066776       -5.3703033819       -0.0301752265
 H         -1.9216092889       -6.4210697750       -0.5119209157
 O         11.5803592910        0.3862270250        0.9163460676
 H         12.4546930113        0.7346019159        1.0907768314
 H         11.2810068886       -0.0259960685        1.7412207744
 O         -0.4736246280       -0.6180545160       -2.6834538972
 H          0.3074972953       -0.0372032102       -2.6289930470
 H         -0.1969282749       -1.5309587482       -2.4672319701
 O         -2.6321042113        6.5825314826       -2.0908498458
 H         -2.7720961910        5.6047387387       -2.0149667630
 H         -3.3876403327        6.9729454616       -1.6439928545
 O         -3.6057037901       -5.7959134354        2.2663069166
 H         -4.5058553853       -5.5488679600        2.5215121601
 H         -3.6369846443       -5.8542968947        1.2854264276
 O        -11.7172076018       -0.3174608843        0.5949971308
 H        -12.6612090804       -0.2661588039        0.4501442498
 H        -11.2946222720       -0.3898682588       -0.3039668558
 O          0.6053404110        0.9467571485        6.0706502975
 H         -0.0805116905        1.6212912216        6.2568671360
 H          0.1886795488        0.1095422848        6.3704334538
 O         -7.9494983902       -5.1273261973        0.3273267133
 H         -7.4462196850       -5.5178531366       -0.4091692877
 H         -8.7953966931       -4.8264538383       -0.0241621294
 O          1.6582727285       -7.1149587306       -0.2943535508
 H          1.7100659253       -7.5357267046        0.5889496971
 H          0.7409439950       -6.8057273210       -0.3496706393
 O          4.1554356332       -6.1040652073       -0.4014348310
 H          4.5649798571       -6.6274808907       -1.0898698112
 H          3.2162712345       -6.3901523092       -0.3566302950
 O          7.9010887015        2.5564401967        3.6795839574
 H          8.2862370727        1.9530605310        3.0029124609
 H          8.0361471211        3.4633491460        3.3859017612
 O         -6.7645814199        2.0449864132        0.3834802989
 H         -7.3483280916        2.6371436728        0.8875913110
 H         -7.2104257810        1.1742717952        0.3898850252
 O         -5.1893277294       -0.4985941440        0.2312899465
 H         -5.6483126247       -0.2249083792        1.0445689790
 H         -4.7028858534       -1.3029012791        0.4832440853
 O         -5.1954574504       -1.0293458921       -4.9621266747
 H         -5.0201083017       -1.1339202033       -4.0023870160
 H         -4.6694662692       -1.6936494996       -5.4180017386
 O         -3.5618993943        0.1228376352        2.3729550840
 H         -4.0004090580        0.9893937582        2.3265762071
 H         -2.9370424069        0.1719767552        3.1194273369
 O         -7.3058757383       -2.3831083477        3.0724319487
 H         -6.9550967933       -1.4957231314        2.8240218739
 H         -8.2221904127       -2.3890353108        2.7743708262
 O         -8.9058354560        0.7909311257        3.1348597402
 H         -9.3355946813        1.1613454075        2.3343534052
 H         -9.3707975728       -0.0193921923        3.3481022210
 O         -8.1000119196       -0.3161683344        0.3326685419
 H         -8.7383517357       -0.6689330385        0.9680381009
 H         -7.5990666057       -1.1011398150        0.0405949875
 O          7.5693875354       -4.8892644590        1.8721207454
 H          6.9650646482       -5.5862296417        2.1545429760
 H          7.2678666712       -4.6726141558        0.9640790675
 O         -1.8603888862        0.0974081796        4.4107436149
 H         -1.2093649142       -0.5301048567        4.0362995892
 H         -1.4979182565        0.9845841373        4.3089613422
 O          4.8919832371       -3.2833726979       -2.7235003266
 H          4.8748460949       -2.3096800371       -2.6419934597
 H          5.6551211598       -3.5973823419       -2.2198880263
 O         10.4750390566       -0.8070807710        3.2155112789
 H         10.2441326979       -1.6426332231        2.7715575216
 H         10.0894729883       -0.8945557356        4.1097668590
 O          7.9941768603       -2.0743109230       -3.6808579515
 H          7.4523010847       -1.5189100119       -4.2700456199
 H          8.8174640659       -1.5919840513       -3.5231855523
 O         -8.6247244129        1.7787081274       -4.2318136496
 H         -7.8429105916        2.3522274313       -4.3019356246
 H         -8.3564583754        0.9036331902       -4.5518656662
 O         -2.5134445137        1.5954294902       -6.5310047471
 H         -1.5727339224        1.8644651367       -6.5139910074
 H         -2.4961063420        0.7263449174       -6.9871401845
 O         -3.2411427525       -6.0006123652       -3.2311648689
 H         -2.3220165061       -5.6898431719       -3.3385399349
 H         -3.3932272751       -6.0489376659       -2.2784674065
 O          2.3804908809        6.6864168567       -1.8951556604
 H          2.3137754552        6.3555903023       -2.8011331049
 H          1.4723084585        6.9478419726       -1.6658393247
 O          7.2275983221        2.1797947618       -4.8767673652
 H          7.9333786327        2.1750005631       -4.2068681247
 H          7.0059748397        1.2394893082       -5.0220682769
 O          3.8752992010       -3.4371481693        4.6466184941
 H          2.9924550546       -3.0714159702        4.8628888367
 H          4.4982887302       -2.9159709813        5.1753778945
 O         -2.5771051377        0.3184398809       -4.1307729164
 H         -2.5036566588        0.7443794747       -5.0040976558
 H         -3.4363295758        0.6266492742       -3.7607068500
 O         -9.8141392254       -1.9153049615        1.7576582171
 H         -9.7438331381       -2.5344564418        1.0090429579
 H        -10.6283436409       -1.4183545275        1.5852838279
 O         -6.7267561128        0.2519308396       -2.0101861920
 H         -7.4220553863        0.8773856368       -1.7285134323
 H         -6.2458301926       -0.0154625967       -1.2079166715
 O          7.2058848151       -3.1543013911        3.9441918534
 H          7.4478908477       -3.7543327941        3.2046169907
 H          6.5628713216       -3.6202159507        4.4809964434
 O          6.8948911120        0.9289486055        5.6228252614
 H          6.0592649160        1.3887357038        5.7969665564
 H          7.4287298503        1.5696905972        5.1232171871
 O         -1.2310340824        5.4313576462       -4.2896515728
 H         -1.5609362073        6.0543791397       -3.6321755084
 H         -1.9980395477        4.8596111819       -4.4848163767
 O         -0.9672020911       -1.1417806118        6.6801607722
 H         -0.9216305161       -2.0886575247        6.4850299287
 H         -1.5811534636       -0.7698136364        6.0271124988
 O          4.7413658963        2.6825718990        5.5606808375
 H          5.1799816729        3.5148471671        5.7409371830
 H          3.7775096840        2.8578143919        5.6702717828
 O         -3.2267333927        3.5692015427       -4.5989774091
 H         -3.0226101607        3.0130747256       -5.3580021647
 H         -3.7319565568        3.0193390155       -3.9842567068
 O          4.4626447684        5.4795933233        2.4533339849
 H          4.4653785511        5.8873545892        1.5667909530
 H          5.3875832655        5.2227365930        2.5981774162
 O          8.8649265071       -1.2676603854        5.3410720417
 H          8.2476796705       -0.5760968992        5.6040983127
 H          8.3462956753       -1.9975025710        4.9716407000
 O          4.9853167455        4.9233817929       -2.3393574711
 H          5.9309772793        4.6884125628       -2.1361309327
 H          5.0031556224        5.6512776726       -2.9619178017
 O         -5.7564705534        5.0469947241        2.0569204083
 H         -5.2749403149        4.1894521989        1.9864654412
 H         -6.6918696006        4.8161801115        2.0840153707
 O         -2.4118250279        5.9940209577        4.2325628533
 H         -1.5603264811        5.5677811106        4.4081957900
 H         -2.5186194608        5.9796065147        3.2679070875
 O         -3.0915191206        4.0098249213       -1.7164851296
 H         -4.0564941446        3.8651386858       -1.7156558822
 H         -2.7977203860        3.8719842331       -0.7978223636
 O          6.4068189521        1.1623053953       -1.7355686422
 H          6.0036498778        1.1168928685       -0.8520103393
 H          5.7539300486        1.5561750610       -2.3478955027
 O          4.6495387885        3.4260610866        0.3755190088
 H          5.4984206586        3.7586731501        0.0784282595
 H          4.8181526667        3.0060261495        1.2370581894
 O          0.0238091125       -4.7396746542        3.5486909799
 H          0.9500274691       -5.0184780136        3.6325510161
 H         -0.4371655032       -5.5162029424        3.1692317609
 O          1.7311815605        5.4328875981       -4.3926381760
 H          1.9544130396        4.8169795953       -5.1155654764
 H          0.7877022913        5.6166649241       -4.4865860349
 O          2.4349882621        3.4897331253       -6.2155896332
 H          3.1843560177        3.6617247417       -6.7843429231
 H          2.6437814638        2.6623073801       -5.7130413077
 O          9.0044166995       -0.9206610731       -0.2585946192
 H          8.1050136899       -1.1787758634       -0.5760897045
 H          8.8650150341       -0.2358641770        0.4214814311
 O          0.0770985610        4.7258911995        4.1975779676
 H          0.6588109800        4.3877055090        4.8926630527
 H          0.6468528395        5.1890164110        3.5531913100
 O         -1.2707937074        2.8242184053        6.4355065469
 H         -2.1085992282        2.7319920870        5.9319740027
 H         -1.5052918183        3.1307712079        7.3094287956
 O         -2.4679843860       -0.8549031864       -0.6618706032
 H         -1.8795554687       -0.5767555735       -1.3836145287
 H         -2.0410673731       -0.4504554688        0.1085526649
 O         -3.5350766977       -4.1368654089        5.7436517807
 H         -4.4160049048       -4.3950947733        5.4717204157
 H         -3.3627576931       -3.2844578248        5.3292338576
 O         -0.3091631855        0.3971531848        0.6577243305
 H          0.3276808050        0.0524458825        0.0232866171
 H         -0.0554715433        1.3152149739        0.8081838526
