  534
       -906.51344699
 O          2.9867744654       -1.5864035187       -3.4619177937
 H          3.9515611950       -1.6737402547       -3.5283691507
 H          2.6363900016       -2.1999878692       -4.1358730490
 O         -0.9916475247        4.5409782132        6.5213729399
 H         -0.8995377119        3.7788712604        5.9214396339
 H         -0.1094029500        4.9173400985        6.5941067598
 O         -4.3942506854        2.9043874334        0.8582998917
 H         -5.3311132546        3.1553016786        1.0215627154
 H         -3.9590384972        2.9724335095        1.7304655881
 O         -7.8224369025        0.2952545005        4.8033230723
 H         -7.2214295914       -0.2433441653        5.3757144072
 H         -8.6383125256        0.3921851389        5.2942247045
 O          3.8228843169        0.3359831231        1.6388941805
 H          3.4233596806        0.9320671837        0.9936969593
 H          3.0819621986       -0.0111590837        2.1715256719
 O          1.7840839935       -1.1721380276        5.2983749123
 H          1.2483085062       -0.6456054169        4.6799767099
 H          2.5768827194       -1.3901213417        4.7617409396
 O         -3.0439786646        5.9689223435        5.5672179814
 H         -2.3450425218        5.4619175521        6.0300685600
 H         -3.8053801754        5.3681463584        5.5311712995
 O          0.7829627276        5.7844847315        0.2450722596
 H          1.7147540764        5.5848195906        0.4444603178
 H          0.7419195112        6.0275595029       -0.7007318528
 O         -2.6829094854        7.0971253991        0.1393327921
 H         -3.4934691692        7.3997072673        0.5520322477
 H         -1.9389115448        7.2893652147        0.7634747791
 O          0.1976046585       -2.9850121079        6.4624780647
 H          0.7896130883       -3.6501343595        6.8187340348
 H          0.7749979916       -2.3852597763        5.9395618536
 O          4.1308438688        4.8355854147        4.3250986814
 H          4.4660479872        5.6549907078        3.9523511220
 H          4.0190645164        4.2285740021        3.5696510821
 O          6.5135622050       -5.6032051990       -1.3622343570
 H          7.0685549339       -4.9244916749       -1.7668941298
 H          5.9585668377       -5.1430982321       -0.7127898129
 O         -1.0325676854       -6.5581623072       -3.3393918783
 H         -1.9984128973       -6.5018750861       -3.4166708207
 H         -0.6796580969       -6.0791526082       -4.0990589909
 O          1.5139844305       -0.1935910681        2.8523968750
 H          1.2089533248       -0.8680652536        2.2247692893
 H          1.2508047992        0.6826828015        2.5172778145
 O          3.3530418922        4.9391311616        0.1317795006
 H          3.3228036649        4.4374997255       -0.6943617659
 H          3.9888467597        5.6628370596       -0.0086100876
 O         -4.7841459887       -3.0397867133       -0.2659126146
 H         -4.4712384883       -2.1763163634       -0.5838722748
 H         -4.2246741551       -3.6923841131       -0.7247337361
 O         -1.1785445365       -0.4552426107       -2.9887392809
 H         -1.3246672168        0.4673766269       -3.2287129450
 H         -0.5042599762       -0.8085762415       -3.5927382123
 O         -4.6169745874        0.1213431697        0.8014479216
 H         -4.6407060809        1.0463407578        1.0801983242
 H         -5.0959640579        0.1116946431       -0.0440587485
 O         -3.6481601950       -0.9304151753       -1.5506372311
 H         -3.7859052758       -1.0211858732       -2.5060629202
 H         -2.8316513435       -1.4157854128       -1.3276291508
 O          3.8538427623        1.4280216784        4.2781466018
 H          3.9605314713        0.4665179457        4.1532312802
 H          3.8317069112        1.8245625864        3.3986439832
 O          7.5631645038       -0.8872554715       -2.2708670774
 H          8.3356857182       -0.3538930753       -2.5434876227
 H          7.2100613177       -0.4901975622       -1.4646876154
 O         -7.4923629463       -4.7657108355        2.2847272147
 H         -6.5257728493       -4.6913208468        2.1514214783
 H         -7.6497455248       -4.7198469893        3.2316480805
 O         -2.3683908016       -6.6906256458        0.6236756925
 H         -3.2487992492       -7.0819575122        0.5161814879
 H         -2.3607183026       -6.2784397570        1.5078408945
 O         -0.3500087120       -2.7313772994        3.4946186567
 H         -1.0866973970       -2.8526278247        2.8683937351
 H         -0.4476304434       -1.8438219427        3.8670117520
 O         -2.8690209619       -4.7537216083       -1.1766631343
 H         -3.0297677734       -5.1461397324       -2.0500999424
 H         -2.6087384688       -5.4824900506       -0.5777929405
 O          3.3996564523       -3.7180930187       -1.7062503926
 H          3.7195108771       -4.0105215171       -2.5850734399
 H          3.1945017200       -4.5346985545       -1.2346609801
 O          5.6332850592       -0.1516746304       -0.2037462746
 H          4.9074419054       -0.1848571334        0.4513660510
 H          5.2773239926        0.2956112401       -1.0051143056
 O          4.0562405633       -2.4487943236        1.3722156457
 H          3.7114462455       -1.9830412352        0.5890969109
 H          4.3103233184       -3.3573359119        1.0889746478
 O         -8.6633371049        0.9095393244       -0.6572297952
 H         -9.1083293416        1.6951453670       -0.2812451104
 H         -8.9502341476        0.1644202442       -0.1010655947
 O         -5.7322289934       -5.5613064493       -1.9315262091
 H         -6.7110101436       -5.5348433970       -1.8488041730
 H         -5.4577834248       -4.6486410929       -2.1375505654
 O          3.2168471634        2.0237235327       -4.5093126855
 H          2.7295626374        1.4695465146       -3.8704698617
 H          3.8358472466        1.4444117662       -4.9751470649
 O          4.4476923218       -2.2949001074       -7.1488386386
 H          4.7288513424       -1.4339225981       -6.7954091325
 H          5.2454946380       -2.8084867203       -7.2806706707
 O          4.7058183401       -4.9078426872        0.6897205373
 H          3.9286969674       -5.4732233791        0.5868366096
 H          5.3411998432       -5.3512580663        1.2811092392
 O          4.1720903899       -5.3954412644        3.5683502365
 H          3.7750374591       -5.2279102219        4.4329886682
 H          3.4248679302       -5.4963526615        2.9566914133
 O         -9.7915701619        1.5316116285       -3.0293291302
 H        -10.6935804567        1.5654281527       -2.6930303719
 H         -9.2485836125        1.3439123591       -2.2359971945
 O         -0.5402691057        3.5025506794        0.1145020088
 H         -1.4171610037        3.8453009354       -0.1692196770
 H         -0.0520773749        4.3088645811        0.3863922613
 O         -5.3210815043        1.3803280683        6.1537252757
 H         -5.6657443307        0.6294579156        6.6452414740
 H         -4.3495121767        1.3751712204        6.2710227421
 O         -6.1115948798        0.8946620382       -1.3853006852
 H         -6.1003079295        1.8316987062       -1.6473956741
 H         -7.0101062038        0.7834083300       -1.0215522832
 O          5.4078881505       -2.7520540130        5.8266860537
 H          5.8900467307       -2.0154258675        6.2177277377
 H          6.0028209920       -3.2334689126        5.2256517874
 O         -3.3025273208        2.6318434182        3.2901155712
 H         -3.9802118937        1.9151527694        3.3896867325
 H         -2.4692329690        2.1867675761        3.0288467502
 O          0.1151471676       -5.2495514005       -1.2907450479
 H         -0.3422612768       -5.7953950450       -1.9622380384
 H          0.2993595829       -4.3927225193       -1.7202683564
 O          0.8449437599       -2.7932341668       -2.0481097472
 H          1.7850043508       -3.0525066469       -1.9873690399
 H          0.6869612182       -2.5401231047       -2.9682207987
 O          0.6811941558        3.3647066471       -2.2191680911
 H         -0.0170965759        2.9104731837       -2.7341222498
 H          0.3417347439        3.3553365113       -1.2936880512
 O          1.5082238476        2.1727570680        1.6432244855
 H          0.9502812450        2.8801455946        2.0294518983
 H          2.4146781314        2.5139858698        1.7166886880
 O         -6.3676434968       -1.2863937493        6.3466065794
 H         -6.7823789913       -2.1311367932        6.0641298790
 H         -5.4093901019       -1.4713020973        6.3399824004
 O         -5.2820925579        4.5549881252       -4.6033402045
 H         -5.2703637409        5.0762734242       -3.7802475235
 H         -6.2071380737        4.3839642076       -4.8138044393
 O         -4.3228055279       -4.1959256064       -5.5619746790
 H         -5.0502236896       -3.6256983825       -5.8512116134
 H         -3.4993209185       -3.8568972378       -5.9461922821
 O         -1.5897569853       -2.4900319765       -0.6960735367
 H         -0.7061066979       -2.4773462323       -1.0921080425
 H         -1.9818155249       -3.3480861459       -0.9757929759
 O          1.9689153106        4.2189075128       -5.5909879431
 H          2.2450554679        3.3691463396       -5.2087872337
 H          1.0742419451        4.0800205916       -5.9423237010
 O         -0.6288891258        7.4980337638        1.7651224243
 H         -0.0210328184        6.9376954883        1.2434057929
 H         -0.5209590108        7.1896940433        2.6808165533
 O          5.4489367621        3.2865418749       -0.5642939633
 H          6.1720982285        2.6420658070       -0.7393317413
 H          5.5140841116        3.9202127496       -1.2858187220
 O          0.2906791092       -7.6021301759        0.7445071614
 H          0.4847879584       -7.9055097858       -0.1637189719
 H         -0.6413504076       -7.3385523768        0.7104986331
 O         -3.4613906089        1.7350184485       -1.4741224574
 H         -3.8632165499        2.1129075043       -0.6799054762
 H         -3.5731479012        0.7594577692       -1.4148703914
 O         -4.8283897413        5.4888089366       -2.1107785912
 H         -5.2668861270        5.9689817266       -1.3744924222
 H         -4.0042685821        5.1275135101       -1.7185161676
 O          0.3001684231        4.1395295800        2.8573909036
 H         -0.5441455510        4.5288988730        2.5372975895
 H          0.9617336852        4.8528065208        2.8676177012
 O          0.9741376013       -1.9223676543        0.8363450338
 H          0.4838404164       -2.7706130963        0.9457593278
 H          1.6820123545       -2.0819592590        0.1992549288
 O          0.5097320799        6.0300326271       -2.4118022991
 H         -0.4072075647        6.3297738358       -2.5223229045
 H          0.5050970036        5.0506830872       -2.4873551819
 O          5.8776478676       -2.7432848472       -0.9142245638
 H          5.7575747013       -1.8132014477       -0.6570827681
 H          5.0034522221       -3.0888236668       -1.1566743413
 O          5.6140696743       -1.5489505173       -3.8338134282
 H          6.3686450489       -1.2690696573       -3.2570915235
 H          5.9182305305       -2.4126353035       -4.1943046743
 O         -3.8541644544       -0.5827045801       -4.2627445193
 H         -3.9516110721        0.3557636276       -4.0497405696
 H         -4.4195046912       -0.7105638242       -5.0489342505
 O         -5.0477938673       -6.8792510330        0.2668253390
 H         -5.1736516873       -6.4288486215       -0.5985716355
 H         -5.9559865605       -7.1727945112        0.4901751013
 O         -3.2152089384       -0.9819921929        3.6454388302
 H         -2.3412554775       -0.5883446961        3.8597426002
 H         -3.0425023978       -1.6576518480        2.9607418113
 O          3.0141399123       -1.0815269040       -0.7534592365
 H          3.1172867972       -0.1209758026       -0.8305364831
 H          3.0473823332       -1.4411759745       -1.6518328678
 O          4.8133837635        4.4650680222       -5.3989814412
 H          4.8097841532        5.2364768198       -4.8139137361
 H          3.9086979028        4.3819875947       -5.7270480808
 O          1.9250119133       -6.0929107595       -3.3652947263
 H          2.5777000684       -6.6146957854       -3.8334496278
 H          1.3150634658       -5.7363079942       -4.0239059005
 O         -2.1115383816        4.8939228461        2.1396524236
 H         -2.6298239096        4.2572297934        2.6444408608
 H         -2.3832666074        5.7736636805        2.4488479490
 O          1.7953582461       -5.9100580014        2.2001546357
 H          1.3729151115       -5.8213422090        3.0788422042
 H          1.3445371223       -6.6507135452        1.7454419329
 O         -3.1892016128        7.1677408007        3.2072256277
 H         -3.1314326074        6.8404491837        4.1338054786
 H         -2.6014448139        7.9222936839        3.1396600443
 O         -6.3591811069       -2.3473483589       -5.4139143559
 H         -6.2584832777       -1.7056524212       -6.1230620152
 H         -6.4661201194       -1.8267259240       -4.5985635125
 O         -5.0550173195        5.2741155702        2.4274895380
 H         -4.5026562853        6.0284526377        2.6723690905
 H         -5.5120423846        5.0059266042        3.2273649688
 O         -6.5509469539        3.4721375780       -1.9415431249
 H         -7.2380245895        3.8344440499       -1.3424624295
 H         -5.8696289724        4.1745594181       -2.0015504821
 O         -9.2662080659       -1.1516079884       -3.2277636024
 H         -9.7987960567       -1.3545390975       -2.4340320844
 H         -9.4555195413       -0.2228512186       -3.4471308922
 O         -9.7956575779       -0.7665832320        1.2193914504
 H        -10.2583505795       -0.1360594846        1.7759464262
 H         -9.2312959931       -1.3006693372        1.8257716099
 O          5.6910316538        0.0673067115        6.3316816574
 H          4.7442193475        0.0508455400        6.5797448403
 H          5.9982879325        0.9348064824        6.6108009838
 O          9.7237633129       -2.2772891911        2.0999831571
 H         10.1968349355       -2.7811362209        2.7602300033
 H          9.5772126749       -1.3799182317        2.4882963227
 O          6.0603664488        2.6892865667       -3.8792532870
 H          5.5394775635        3.2396741175       -4.5101090925
 H          6.5090899675        3.3279294738       -3.3066856275
 O          5.4161667641        2.9811636075        5.8757177613
 H          4.9567390734        3.8201275228        5.7397871082
 H          4.8771023897        2.3416553316        5.3698775172
 O          2.5642194057       -6.1489736473       -0.5737925620
 H          2.4108541524       -7.0205010835       -0.2032596532
 H          1.6703861678       -5.8570886510       -0.8793831197
 O        -10.8098228141       -1.7048031275       -1.0516509218
 H        -10.8675796393       -2.6632188047       -1.0562820633
 H        -10.3956639130       -1.4937416373       -0.1872312484
 O         -6.6614460857       -1.3172342429       -2.7847388789
 H         -7.6199587053       -1.2355468404       -2.9906683272
 H         -6.3492035394       -0.4196390475       -2.5587795729
 O         -0.6910812979        3.4883318884       -6.0323338373
 H         -1.1739043381        4.0393760157       -5.4001457419
 H         -0.3960984909        2.6838919013       -5.5593186884
 O         -1.5332879667        2.3209728995       -3.2059875502
 H         -2.1527201118        2.1584523055       -2.4706348921
 H         -1.8889853958        3.1157140686       -3.6408612043
 O         10.6395750885        1.0850812828       -0.3158087864
 H         10.6383634074        2.0444858578       -0.2430707319
 H          9.9314342671        0.7616619716        0.2622495275
 O         -0.4756136864        2.4751302071        4.7615586575
 H          0.3689402307        2.2881151353        5.2225923781
 H         -0.2269234376        3.0758492765        4.0242827599
 O          4.4112476395       -4.6892269824       -3.9907451286
 H          5.3039683092       -4.4902953052       -4.3061852323
 H          4.4510528510       -5.5851813535       -3.5673720922
 O          2.1178396489        6.1506547020        2.6725413453
 H          1.7638420226        6.9380460374        3.0862753100
 H          3.0570328767        6.3127395049        2.4830896688
 O          4.7417074569        0.8067627986       -2.4840774787
 H          5.2551912148        1.5224130573       -2.9015971097
 H          4.9010330198        0.0202101576       -3.0091655930
 O          8.3199857949       -0.2245470214        0.4868607474
 H          7.7077894645       -0.7084750197        1.0631256576
 H          8.8231527295       -0.9057321861       -0.0014968640
 O          6.6593259962        0.2976433354        3.7967495983
 H          6.2217468835        0.1600839588        4.6595225301
 H          6.5088977043       -0.5141277940        3.2570361365
 O         -7.2455635413       -3.4645237784        5.0328898187
 H         -7.7006394655       -2.9590940787        4.3322877960
 H         -6.3269430908       -3.5924950454        4.7323264244
 O          0.7846127143       -8.1370497782       -1.8787773482
 H         -0.0782388674       -8.1548346570       -2.3030635014
 H          1.2606645441       -7.4258247916       -2.3472328456
 O          8.8031080381        2.4910196572        1.7575277908
 H          8.6750392744        2.9576218684        2.5933092581
 H          7.8861466343        2.2008323698        1.5133323529
 O         -3.6499334895       -6.0205357860       -3.5417577923
 H         -3.8583649924       -5.5100806092       -4.3364644970
 H         -4.4940348490       -6.1547139044       -3.0771904403
 O          8.0203258410       -1.6478589708       -5.9101452238
 H          7.7764817194       -0.7224802405       -5.7809797178
 H          8.8437508596       -1.7709745254       -5.3901014756
 O          3.1229078843        1.7415299553       -0.5923821537
 H          2.7000893340        1.8383577363       -1.4510423697
 H          3.9323727392        2.2820222059       -0.6352351888
 O         -2.0952944430        6.8490284917       -2.5184166842
 H         -2.3319822047        6.9370751280       -1.5729950319
 H         -2.3403262146        7.6725463988       -2.9398008433
 O         -2.8651134719        4.5286127270       -0.5997826147
 H         -3.4620541738        4.0148497791       -0.0159386862
 H         -2.7313422514        5.3873036086       -0.1525496637
 O         -6.6920686776        0.9031652204       -4.6061582836
 H         -7.3118136840        1.6503553327       -4.6672847852
 H         -5.8957918923        1.2892357238       -4.2000969694
 O          6.2628384122        1.7581573705        1.5505853062
 H          6.2209810782        1.2424612054        2.3737564681
 H          6.1420476048        1.1015755171        0.8348096774
 O         -2.2261186654       -3.9686436814        5.3397190324
 H         -1.9992446254       -4.4761407661        4.5425088997
 H         -1.3828427616       -3.6578196976        5.7055676501
 O         -3.0491735257        1.9646451212       -6.4361706711
 H         -2.3198397397        2.5986182175       -6.5262027474
 H         -3.4446101394        2.1199397295       -5.5638149391
 O          9.2231412500        3.3042199454       -2.5712341993
 H          9.6981496030        3.6564407133       -1.8068750740
 H          8.5561432405        3.9659075696       -2.8011850528
 O         -7.9407954525        3.2688487425       -4.2340245967
 H         -7.4676806876        3.3483908624       -3.3778747932
 H         -8.7946583674        2.8793236017       -4.0033282603
 O         -4.8807102491        3.9377421433        5.1051707935
 H         -4.9529155297        3.3267346396        5.8476873145
 H         -4.2281956476        3.5295043168        4.5061530977
 O         -2.4491423683        4.6660299060       -4.2088029827
 H         -3.3432776070        4.7126678395       -4.5674359991
 H         -2.3679413903        5.4004419019       -3.5779586825
 O          2.8567646201       -4.0926710374        5.7298099312
 H          2.6617009718       -3.6661637812        4.8665904528
 H          3.6763156431       -3.6909985369        6.0364403390
 O         -4.3745556158        2.1357218184       -3.9211861290
 H         -4.7227669758        3.0282067302       -4.1275047851
 H         -4.1436567769        2.1225669155       -2.9666775812
 O         -0.0527122111       -4.3238490583        1.1624302026
 H          0.7367817984       -4.7898900386        1.5201182681
 H         -0.1919315682       -4.7246990110        0.2794519872
 O         -2.6765147476        1.6140333220        6.2400043141
 H         -2.0454870000        2.0084286501        5.6222368546
 H         -2.1705474475        1.0255437563        6.8076637963
 O         -3.6744525505       -1.7219110591        6.1675484490
 H         -3.5797874561       -1.4690750522        5.2187723253
 H         -3.4067974147       -2.6489520940        6.1961111389
 O          6.4161832357       -3.9818868747        3.6095451608
 H          7.0040794375       -4.6556652342        3.2501370740
 H          5.5323745624       -4.4146123348        3.5333546117
 O          9.3293298033        0.1080822181        3.2168516759
 H          9.3576090633        0.8515003684        2.5976273121
 H          8.4275133545        0.1197275546        3.5825824947
 O         -5.2121625987       -0.0948077366       -6.5524901971
 H         -5.8820625367        0.3608545686       -5.9919578839
 H         -4.6612051281        0.5953654226       -6.9323808396
 O         -5.1617236980        0.8029598598        3.5455624872
 H         -4.5456133267        0.0423968607        3.5296466131
 H         -5.3801835934        0.9590098360        4.4872173553
 O         -6.0615352560        6.3134483058        0.0906776169
 H         -5.7353969982        5.8806257528        0.9007652442
 H         -6.9589744144        5.9806265567       -0.0366966975
 O          4.1340292527       -1.2638408176        4.0080880797
 H          4.5995193709       -1.8505163884        4.6345412837
 H          4.1258895580       -1.6873992990        3.1401597330
 O         -7.2532970263        0.5261805021        1.7614488664
 H         -6.5298464875        0.4581455171        2.4109358437
 H         -7.1679802581       -0.2186697307        1.1393868816
 O         -7.1271427103       -1.5880337464       -0.0856783369
 H         -6.3956265380       -2.1233937153        0.2574834096
 H         -6.9776307905       -1.5445348609       -1.0482120021
 O         -8.3476058953       -5.2557489953       -1.6662382919
 H         -8.6223980498       -4.6029286118       -0.9848459250
 H         -8.4997395362       -4.8281016711       -2.5256468446
 O         -9.5539716269        1.6639745039        2.6861302244
 H         -9.2483981626        2.3316820469        3.3048602645
 H         -8.7441093980        1.1877354070        2.4042144796
 O         -6.9244219078        3.0992822273        1.5100345131
 H         -7.0945542832        2.1416318900        1.3661306213
 H         -7.0578398784        3.2131969785        2.4744345789
 O         -8.9781677224       -3.5072594010        0.2722709084
 H         -8.3769954717       -2.7476793681        0.1335728676
 H         -8.6361315159       -3.9472454178        1.0642307024
 O          0.4672600587       -1.7941621066       -4.6483389043
 H         -0.1312580404       -2.3445429595       -5.1699438778
 H          1.0770997753       -1.3680496218       -5.2710690960
 O          1.6417505887        4.9197069957        5.4983625132
 H          1.6983930156        3.9762245455        5.7205283086
 H          2.4874188352        5.0974825602        5.0535941810
 O         -1.3203027401       -0.7394340540        6.9943477493
 H         -0.7656592188       -1.5283459670        7.0880832002
 H         -2.2300887726       -1.0788683036        6.8503693992
 O          0.2675018349        1.1250733650       -5.1033724747
 H         -0.4897712468        0.5519348268       -5.3747903331
 H          0.9946537718        0.8635638529       -5.6828978533
 O        -11.8744049473        0.8800652146       -1.1689920451
 H        -11.5328298852       -0.0310852049       -1.1449280228
 H        -12.8254033077        0.8097083159       -1.2487568909
 O         -8.2713598767        4.5583319104       -0.2113050233
 H         -9.1742633189        4.2194719653       -0.2034978194
 H         -7.8195803643        4.0782415800        0.5195058415
 O        -10.3218608368        2.7465272244        0.3345570758
 H        -10.2075975843        2.4253183661        1.2530416514
 H        -11.0411032207        2.2386023170       -0.0648899500
 O          0.5409168663       -5.2675472210        4.4984963309
 H          0.2563822568       -4.3681633284        4.2565852434
 H          1.2559861665       -5.1518787663        5.1307863148
 O          1.8983657163        2.1811482701        5.8857025300
 H          2.5707326742        1.9275926942        5.2134298413
 H          2.1510033009        1.6788344706        6.6689244463
 O         -4.7804139425       -3.2587926086       -3.0076607140
 H         -5.4525084216       -2.5657734482       -2.8986624581
 H         -4.8343620796       -3.5749723272       -3.9232422560
 O         -1.7897939604       -0.3352016671       -5.9159254966
 H         -2.2228037036        0.4041631713       -6.3839023337
 H         -2.3963290826       -0.5147077748       -5.1622177696
 O         -8.4630448250       -3.7392233650       -3.9715006151
 H         -8.8931851359       -2.8861841683       -3.8274510238
 H         -7.7604059698       -3.5707381151       -4.6087445850
 O         10.0527826560        3.9994463433        0.0249824238
 H          9.5362520100        3.4628862402        0.6873424520
 H         10.8111311335        4.3574936742        0.4864153392
 O          7.2075749638        3.1141912388        3.8902467883
 H          7.1453897025        2.1491669224        3.8628970102
 H          6.6718477790        3.3330589956        4.6787587156
 O         -2.4954178818       -2.8136822823        1.8347116154
 H         -2.1699427844       -2.6586843462        0.9267304066
 H         -3.0730554565       -3.5868019759        1.8063100575
 O         -8.1878800882       -1.8100012519        3.0726295913
 H         -8.1193988428       -0.9961827018        3.6051320722
 H         -7.3098688007       -1.9014278462        2.6395916063
 O          6.9099315360        4.8647179863       -2.4953163752
 H          7.2695752034        5.2696543322       -1.6719835004
 H          6.2804904392        5.4940410772       -2.8736184831
 O         10.0929811457       -1.9281705457       -0.6135406014
 H         10.8767833643       -1.4222884723       -0.8320088190
 H         10.2014643197       -2.2526338325        0.2947329080
 O          6.5514878050       -1.7490840656        2.1255728905
 H          6.6640650331       -2.5619668811        2.6580634930
 H          5.6711845778       -1.8605548025        1.7152102236
 O          3.0903500471        0.0576767228        7.2156420298
 H          2.9896211167       -0.4391898804        8.0260925131
 H          2.5635920456       -0.4139567012        6.5208448797
 O         -2.1197952447       -2.9973153561       -3.3979564272
 H         -3.0589831254       -3.1259225631       -3.1766844941
 H         -1.8942739717       -2.0817267193       -3.1706759356
 O          6.4724754783        4.5941244715        1.6438636443
 H          6.6872434352        4.0562418569        2.4302110570
 H          6.0774673808        3.9974225726        0.9747835846
 O          7.9154167572        5.8029273815       -0.2334819554
 H          8.7794347540        5.3665607969       -0.2095310418
 H          7.4283126718        5.4350740366        0.5356685068
 O          8.3109914176       -3.5166574505       -2.3722491584
 H          7.8836346166       -2.6516789252       -2.2122309013
 H          8.7634933516       -3.7100804036       -1.5419541580
 O         -0.2697964969        6.6027616153        4.3476681952
 H         -1.0325112510        6.5235149258        4.9258939807
 H          0.4057828057        5.9990490619        4.7051852607
 O          8.0079736118       -3.7501447838        0.4280356996
 H          8.3945251444       -3.1418924630        1.0712732961
 H          7.2154540583       -3.3264551817        0.0409558475
 O         -7.6957849544       -6.9833896930        0.5998947103
 H         -7.7917053550       -6.2635340350        1.2438191034
 H         -8.0469061065       -6.6426463284       -0.2319768965
 O          2.1654484773       -0.4377423176       -6.3809317678
 H          2.2329249681       -0.9371702338       -7.1957440660
 H          3.0760370615       -0.2338533689       -6.1175632685
 O          9.9668818174       -1.9960337409       -4.0936465875
 H          9.5607478954       -2.5951257529       -3.4462681297
 H         10.0667411192       -1.1422315222       -3.6534440287
 O         -4.7902137692       -4.7302397927        1.7472770050
 H         -4.8918420235       -4.0226114354        1.0776942787
 H         -4.8322559166       -5.5824056745        1.2463190604
 O          2.2655696135       -3.2245708774        3.2846088236
 H          2.7504200723       -2.9772098777        2.4861339378
 H          1.3354620271       -2.9717052543        3.1727848521
 O          4.7882324366        6.6281776176        2.2353673330
 H          4.8212285899        7.2033724780        1.4662374586
 H          5.4097975901        5.8970599901        2.0365144550
 O          7.0516957676       -5.8614985429        1.6938065720
 H          7.2356367873       -6.6712754093        1.2184477418
 H          7.4702696911       -5.1384369459        1.1643411444
 O          4.4947005040       -6.8737910607       -2.5615738352
 H          5.3302852990       -6.6100514969       -2.1274362180
 H          3.7927583455       -6.7232831415       -1.9076874762
 O          7.3234201599        1.1244473121       -5.6123818318
 H          6.9819329812        1.6978300012       -4.8882373195
 H          7.8875327950        1.6691678915       -6.1591675256
 O         -1.7426758279       -3.1115790872       -5.9476880167
 H         -1.8411466484       -2.1930050901       -6.2366338472
 H         -1.9306228234       -3.1133393752       -4.9643290466
 O          1.5935861505        0.6342279130       -2.8255891455
 H          0.9438069319        0.8248159366       -3.5322932973
 H          1.9882887186       -0.2336708244       -3.0384095765
 O          6.8433626326       -3.7096519280       -4.7300363761
 H          7.4545347523       -3.8867964269       -3.9994075480
 H          7.3177886307       -3.0849044157       -5.3216062604
 O         -4.6738467018       -3.6180230905        4.1350954506
 H         -3.8599998297       -3.8023401844        4.6216512631
 H         -4.6638495839       -4.2145462757        3.3657824989
 O         -5.6784470994       -1.9157870256        2.2357815262
 H         -5.1636024804       -2.3235606565        2.9439877797
 H         -5.1359559752       -1.2395607265        1.7932114731
 O         -0.8229650205       -0.1902785813        4.4448030461
 H         -0.9466283425       -0.3271581484        5.4126724625
 H         -0.6900265266        0.7653725232        4.3101976121
 O          7.4668031797        1.7496882865       -1.1606690070
 H          7.8661752038        1.1317405693       -0.5252900686
 H          8.1679862953        2.1995045506       -1.6562873798
 O          9.7726112580        0.5384058323       -2.8101727820
 H         10.1950808058        0.6519738397       -1.9332748546
 H          9.6570411687        1.4297749694       -3.1563010888
 O          4.5218791190        6.1139471586       -3.1047936470
 H          3.7886836279        6.5780624423       -3.5791859107
 H          4.0804218100        5.2794478158       -2.8206195419
 O          5.1472465774        6.8643012424       -0.5785752245
 H          6.1065851718        6.8283833252       -0.5181842330
 H          4.9168702772        6.8008992126       -1.5276177431
 O         -1.7518615366       -5.4077586735        2.9453686719
 H         -1.1660049964       -4.9085059818        2.3290873111
 H         -1.1739365161       -6.0049671410        3.4270157532
 O          4.8415411498        0.0748794938       -5.7499262418
 H          5.1331312379       -0.5379793351       -5.0307455638
 H          5.6563698204        0.5444520825       -5.9927993288
 O          2.6074341426       -3.4040074736       -5.4391608136
 H          3.1923480531       -4.0133649984       -4.9436181083
 H          3.1581316674       -3.0654872167       -6.1648017237
 O          3.9690767689        3.2009623257        2.0698459535
 H          4.7588089595        2.7076297725        1.7740121947
 H          3.7906315666        3.8881498063        1.3921671204
 O          2.3077322190        6.6863441633       -4.3589562115
 H          1.6429242458        6.6143320244       -3.6511819441
 H          2.1740296630        5.8952946925       -4.9085956078
 O         -7.3218501211        2.9778138307        4.1376300882
 H         -7.3536639975        2.0376613770        4.3875188980
 H         -6.5428124252        3.3462677762        4.5829479607
 O          0.3073838955       -4.9219133082       -5.3189027970
 H          1.0728684905       -4.3410493706       -5.4740100567
 H         -0.4590036874       -4.4631790993       -5.6891040878
 O          3.3085903851        3.8310669655       -2.4933476541
 H          2.3355839453        3.7805461971       -2.4537939966
 H          3.5445438400        3.2464309799       -3.2362701885
 O         -1.2163769532        1.9614375334        2.1408955407
 H         -1.3505670328        1.0474453518        1.8081871107
 H         -1.0194530083        2.4932501212        1.3471117360
 O         -0.1705684545        0.6564668925       -0.5618805979
 H          0.4384019100        1.2200245264       -0.0757489425
 H          0.3355246517        0.2108029991       -1.2458286636
 O         -1.7934427205       -0.3814073191        1.2498541979
 H         -1.1511693599       -0.2891533872        0.5183430930
 H         -2.6753244969       -0.2856260819        0.8792204648
