  311
       -524.05607555
 H          0.5103392185       -0.9836963466       -1.0869699506
 C          0.6141962711       -0.5760465052       -0.0850484534
 H          0.7800298925       -1.3848192244        0.6246511486
 C         -0.6377383246        0.2115523079        0.2771442949
 H         -0.5005636626        0.6591367797        1.2634139228
 H         -1.4921111662       -0.4594741409        0.3029635901
 N         -0.9010293791        1.2824819324       -0.6726640091
 H         -0.0558232564        1.8194304131       -0.8450847911
 H         -1.2561868364        0.9195820445       -1.5465664831
 O          1.7379883131        0.2915399777       -0.1158692422
 H          1.8498523352        0.6365354077        0.7979318116
 O          0.2290837711        3.1714825673        1.9024911506
 H          0.1288051610        4.0185805498        2.3732080165
 H          0.5629147124        3.3633880027        1.0024635314
 O          2.3639656623       -0.2240113585       -4.7285725687
 H          3.1611488602       -0.7714565459       -4.6424867134
 H          1.7225276625       -0.7244695268       -5.2756192553
 O          4.3029041475        3.1750178410        5.5410016724
 H          4.6962417810        3.7886178305        4.8417010871
 H          4.8522896636        3.2711958034        6.3178687513
 O         -3.7179409308        5.5523774470        0.7683498820
 H         -2.8359917548        5.7470029026        0.4116157874
 H         -4.3296456710        5.5860033534        0.0256073370
 O         -3.6721700652        0.6492162930        4.9791228497
 H         -4.0561200817       -0.1861862642        4.6347659132
 H         -4.2910472545        1.3475018609        4.7231260186
 O          4.8980121604       -1.0310503966       -4.0518172113
 H          4.5188988176       -0.8364878317       -3.1738320837
 H          5.2351399165       -1.9447189040       -3.9892880720
 O         -1.9972638167       -1.2674317791        2.6964603630
 H         -2.4865271963       -0.5060725979        2.3212707176
 H         -1.1867245326       -0.8692376776        3.0745506437
 O          1.5791437196       -2.4823008757       -2.7408377560
 H          1.4771148327       -2.9580855165       -1.8859638997
 H          2.2828107742       -1.8138052426       -2.5557730267
 O          2.9797527186        4.0078098595        2.1682687474
 H          2.4914107119        3.8652627301        3.0013387711
 H          2.4927369524        4.7164121923        1.7043474543
 O          4.2931488915       -2.8698642055       -0.2431140133
 H          4.6717553389       -3.7272635009       -0.5100138405
 H          4.8678864310       -2.5822897997        0.4974805009
 O          1.7025281636       -3.5959965011       -0.3509936738
 H          2.5758405383       -3.2139727841       -0.1437525328
 H          1.7779767750       -4.5397428192       -0.0637004592
 O          2.1832661257       -5.9950849508        0.5770735327
 H          2.8860746956       -5.6779901363        1.1830192078
 H          2.6585335817       -6.3783610191       -0.1940091918
 O         -1.8738155382       -2.8508886242        5.0190849711
 H         -2.0376907142       -2.2604910448        4.2639131382
 H         -2.1737862524       -3.7224653752        4.7009402879
 O         -2.1667780900        2.9116564775        0.7823622571
 H         -1.7230812129        2.2973664340        0.0859885303
 H         -1.4965425793        2.9487443207        1.4901081290
 O         -5.2302970138       -3.1275056725       -1.8784512558
 H         -6.1814028119       -3.0443448794       -1.6925393386
 H         -4.9417952562       -3.9591099808       -1.4486694033
 O          3.3614503404       -4.5910739247       -3.4309104995
 H          2.8669049743       -3.8266845732       -3.1010393389
 H          4.2794246948       -4.2888053579       -3.5296927073
 O          0.7399313667       -4.1728078669       -4.6484680517
 H          1.0176407604       -3.5112402889       -3.9841727094
 H          1.4834706400       -4.7793344846       -4.7135193227
 O          1.1543857828        3.3818616329       -0.6347075131
 H          2.0733815081        3.0826802292       -0.5565518780
 H          1.1411402680        4.1495325924       -1.2224413439
 O          1.4699013629        5.8702581501        0.8790145256
 H          0.6058018444        5.6903623296        0.4536336370
 H          2.1418416806        5.8750991595        0.1803367331
 O         -2.8435260718        1.2778557198       -2.7570153151
 H         -3.3726731902        1.0464575369       -3.5392939843
 H         -3.4045189189        1.8059233598       -2.1632238966
 O          6.0754531503       -0.4705470123       -0.7633792447
 H          5.3929101887       -0.4217594064       -0.0622204501
 H          5.7794566364        0.1511910355       -1.4456500679
 O          4.0374192523       -4.7315190264        2.0815362561
 H          3.7762953714       -3.7992215042        1.9753253682
 H          3.8297271030       -4.9399349248        3.0074905421
 O         -4.8528822399        2.5619132559        3.3992234755
 H         -4.2481014682        3.3156983632        3.3824623362
 H         -5.4142406981        2.6410514193        2.6090277062
 O          4.3036999959        1.4228306515        3.2828016731
 H          3.3403748400        1.3630936465        3.0875882610
 H          4.3976470017        2.0267557105        4.0267406196
 O          5.5062843528       -0.8754954575        3.9170879978
 H          4.8854782314       -1.3935721675        4.4409722609
 H          5.0431140996       -0.0254001938        3.7515592072
 O         -4.7604133473       -2.2580263491        0.6946238843
 H         -5.4272923463       -2.9311749799        0.9572598897
 H         -4.7713417810       -2.2275697028       -0.2779342627
 O         -8.5533943157        2.8404644822        0.0371523030
 H         -9.0486131838        3.4435621118        0.5914547985
 H         -9.0002161009        1.9675663999        0.0870517892
 O         -7.8715465579       -2.7444631062       -1.2122183775
 H         -7.9745503747       -2.3781650971       -0.2922224188
 H         -8.3641307890       -3.5644697874       -1.2299881917
 O          1.7780625171        1.1144079901        2.5037245743
 H          1.2187058744        1.9139894985        2.3928730323
 H          1.2706767835        0.5173272016        3.0819386336
 O          5.2105768556        4.5846230352        3.5903276568
 H          4.4679351079        4.4904990556        2.9592148874
 H          5.9529778732        4.0930809056        3.1923520596
 O          5.8668114859       -3.5073204853       -3.5771188870
 H          6.3186676685       -3.3375588592       -2.6975889446
 H          6.5396284904       -3.8648901487       -4.1551365262
 O         -2.0355525873       -1.0506665063       -5.3864039646
 H         -2.7381155665       -0.3930066349       -5.4578676740
 H         -2.4522646817       -1.8391658524       -4.9933021135
 O         -4.2626029911        2.8568796841       -0.9404577775
 H         -4.6070720450        3.7191614990       -1.2449418210
 H         -3.5582964767        3.0552739339       -0.3052008654
 O         -0.9370215954       -3.3603907619       -0.7173069493
 H         -1.0168619814       -3.9716561889       -1.4831444525
 H         -0.0119412620       -3.4040645131       -0.4218803208
 O         -1.8950491783       -6.3431032556       -0.6400253366
 H         -1.6265560115       -5.9989203672       -1.5029531783
 H         -2.8526486840       -6.2445656350       -0.6014603093
 O         -4.3677139364       -0.0154293804       -0.6173100552
 H         -3.9915590115        0.3069811787        0.2187754552
 H         -3.6454245016       -0.4080397805       -1.1343594044
 O          4.9710585918        1.4690712639       -2.3221186728
 H          4.6426395434        1.5846198352       -3.2368044478
 H          4.3466509819        1.9099428048       -1.7333174719
 O         -6.1672574731       -0.3162922143        1.8121320589
 H         -6.1468083855        0.6184057222        1.5192018695
 H         -5.5601524382       -0.7987757823        1.2106311416
 O          4.1939082969       -0.1091271395        1.0582243192
 H          4.5439531611        0.3309049662        1.8422659113
 H          3.6673596846       -0.8674296702        1.3793021339
 O          3.6700217581        5.3584445170       -0.8238597474
 H          4.5125442214        5.1776356027       -0.3893231470
 H          3.6234503108        4.7231886500       -1.5532196056
 O          4.1603797444        1.8028880601       -4.8858111383
 H          3.4106386197        1.1764860364       -4.9480115767
 H          4.8677812634        1.4221134575       -5.4093008048
 O          3.1120586892        3.6470546325       -3.0467671821
 H          3.5744977268        3.4501546718       -3.8669249025
 H          2.5345460789        2.8633817293       -2.8918036801
 O          3.1314922788       -4.7330877091        4.6697762320
 H          3.6633406642       -4.0577325344        5.0965422139
 H          2.2167639903       -4.4148959477        4.7012817796
 O          7.2162335585        3.1634185186        2.4222853437
 H          7.3125089970        2.2101160122        2.6950381403
 H          8.0867844353        3.5477163418        2.5235634598
 O         -2.4352394099       -1.4766834955       -1.8425542479
 H         -1.9330728119       -2.1241267864       -1.3134416017
 H         -1.7541810519       -0.9787426979       -2.3488016734
 O          3.7126848055       -6.5432643478       -1.5221462298
 H          3.5120456851       -5.9401340350       -2.2607998665
 H          4.5504913287       -6.2343716874       -1.1512189362
 O          7.1129116843       -2.8961858357       -1.3815087593
 H          7.9080300099       -2.4847071160       -1.7913128886
 H          6.6117501095       -2.1211169805       -1.0611429555
 O         -4.2453230019        0.7032799529       -5.0269076136
 H         -4.8043944454        1.4808213942       -4.8730470794
 H         -4.7729111584       -0.0493619384       -4.6697369798
 O          3.6582292937        2.4052427672        0.1032744036
 H          3.4239158330        2.9038576323        0.9142883829
 H          3.7670355430        1.4808947318        0.3879845758
 O         -5.2134372852       -4.2179244212        3.7623421268
 H         -4.3509382301       -4.6554557482        3.7633426949
 H         -5.0373806216       -3.2711951496        3.9132945412
 O         -5.7325282386       -1.0343335736       -3.6992818069
 H         -6.0205674010       -0.3382481261       -3.0726861081
 H         -5.3933598622       -1.7426069715       -3.1386831962
 O          3.4659165015       -0.9432430520       -1.7932932571
 H          3.8914071288       -1.6505123245       -1.2581210710
 H          2.9985293099       -0.3944165788       -1.1403182116
 O          0.1302785714       -3.1574982810        2.1074522116
 H         -0.0721581697       -4.0953045916        1.8567233225
 H         -0.7139608527       -2.6848909312        2.1020203394
 O         -9.8164459066        0.4418978223        0.0840060151
 H         -9.4022923922        0.1572417299       -0.7823243959
 H        -10.7608941283        0.4742456034       -0.0677402394
 O          8.2251459075       -0.5612836179        0.8109369689
 H          7.4648581962       -0.4493618226        0.2018436430
 H          8.9563576363       -0.1418378362        0.3437470762
 O          7.7078581049        0.6969512558        3.1157900177
 H          7.0698288393        0.1256826491        3.5602717964
 H          7.9588445501        0.2230115538        2.2925958481
 O         -6.5405551671       -4.0839713514        1.4823349860
 H         -7.3261645638       -3.5559791608        1.6546897739
 H         -6.1171338248       -4.2422132909        2.3625247108
 O          0.6002743088       -1.7454445009       -6.0710677950
 H          0.5960484725       -2.6704932968       -5.7812220786
 H         -0.3223299918       -1.4564025047       -6.0558171974
 O         -6.0519970693        2.2402595420        0.9746210701
 H         -6.9184418556        2.4864708188        0.6162142639
 H         -5.4095835416        2.3668991825        0.2410417146
 O          9.4203112440        0.9685385870       -1.1602904059
 H          8.6480224100        1.5390843941       -1.3917599454
 H         10.1892913957        1.4065027975       -1.5235126860
 O         -2.7280962361       -3.8232891113        1.1607898068
 H         -2.0171235020       -3.6985716879        0.4963056895
 H         -3.3360393167       -3.0568466281        1.0857233837
 O         -2.4866494395       -5.0130898562        3.5143334600
 H         -1.8358801310       -5.7053534012        3.3738301910
 H         -2.5455810098       -4.5676604322        2.6395693268
 O         -1.3031650305       -4.8091284324       -2.9300906993
 H         -2.0285525905       -4.2835991856       -3.3238059782
 H         -0.5776942099       -4.7536990189       -3.5768179804
 O         -3.6137531139        4.6983291940       -3.9589392342
 H         -2.8116311385        4.8432208405       -3.4211703071
 H         -3.2679742905        4.2685199780       -4.7679553101
 O          2.5899867006        0.7970711532        5.6173075431
 H          3.1953024219        1.5381871877        5.7171629219
 H          1.6985032546        1.1768499735        5.5073596089
 O         -0.4095395347       -0.5404801981       -3.2678507147
 H          0.2669081575       -1.2341448752       -3.2819084187
 H         -0.8719804969       -0.5828237556       -4.1235838269
 O         -2.7219096786        4.4310756568        3.1183865846
 H         -1.9367718951        4.9711642655        3.2759075476
 H         -3.1123265222        4.7780946376        2.2967993290
 O          3.0671516834       -1.7271080061        4.8680882244
 H          2.8957056418       -0.8052813905        5.1505487656
 H          2.2777470501       -2.2329888217        5.1071085817
 O         -0.3700558773       -5.6839785020        1.5479002337
 H          0.5096491414       -5.9965300472        1.2834044056
 H         -0.9542887080       -5.9141911896        0.7996595717
 O          0.7534681136       -3.1942998168        4.6539890148
 H         -0.1457935504       -3.1965190657        5.0404149770
 H          0.5900102081       -3.3199184772        3.6850930594
 O          0.1780716866        2.0429279451        5.4710829897
 H         -0.2861986166        1.6345729613        6.2056685515
 H         -0.4538470075        1.9951852463        4.7008629730
 O         -0.0401678649        5.5197855946        3.2475902086
 H          0.6182905971        5.2576117538        3.9082883792
 H          0.4243775685        6.0382509031        2.5788281145
 O         -6.3186030930        0.9576641683       -1.9746779411
 H         -5.5836365975        0.6754865527       -1.3769751387
 H         -5.9701950191        1.6874841263       -2.5143616737
 O          1.3634896348        5.6039748131       -2.4848318703
 H          1.9717184562        4.9650589261       -2.9051470574
 H          1.9200793145        6.2890967150       -2.1104843525
 O          0.2338810020       -0.5401047263        4.0079899275
 H         -0.2505495401       -0.2586081625        4.8110025179
 H          0.5805454870       -1.4228982060        4.2161023749
 O          1.6669095181        1.4465020085       -2.7157285972
 H          1.8580004674        0.7496922210       -3.3719958104
 H          1.6360384549        1.0336759481       -1.8399539314
 O         -1.3801181617       -0.2769883724        6.1570493914
 H         -2.2239816798        0.1242230643        5.8917912484
 H         -1.5566044708       -1.2254734451        6.1821058532
 O          8.8917344017       -1.3663628204       -2.6236309994
 H          9.1752575686       -0.6613433407       -2.0204198322
 H          8.3734432845       -0.9010664796       -3.3085620260
 O          1.8110422911        4.0214613003        4.6274712717
 H          1.1771166551        3.3560441253        4.9488446123
 H          2.6253830878        3.8811393623        5.1307466267
 O         -8.7808556077        1.8444219621       -3.9942259781
 H         -8.9110032161        1.0731830761       -3.4218778515
 H         -8.0690653438        1.6099346460       -4.5933792257
 O         -5.5265654402        2.8087789559       -3.8090886481
 H         -4.7897078826        3.4539643123       -3.8072328122
 H         -6.3117249476        3.3068979999       -3.5316685650
 O         -8.3110616075       -1.7061278187        1.1674523963
 H         -7.5258802889       -1.1904954631        1.4789998636
 H         -8.9767442165       -1.0292097464        0.9826568997
 O         -1.6515511818        1.9196380237        3.6268329400
 H         -2.3550683660        1.4102911128        4.0690606634
 H         -2.0145193430        2.8110407390        3.4878466856
 O         -4.5372594538       -5.2033844793       -0.2664588777
 H         -5.3294623298       -5.2228435131        0.2811748759
 H         -3.8489455052       -4.7796928188        0.2978045355
 O         -3.4470082055        0.8071210406        1.7793577335
 H         -2.9445135593        1.5856118206        1.4469626732
 H         -4.0662695415        1.1864512701        2.4238894560
 O         -4.6260832598       -1.5196978835        3.7048384179
 H         -5.2779403439       -1.0872803331        3.1183932805
 H         -3.8272242234       -1.6328539900        3.1679736339
 O          5.7499377359       -5.1108207002       -0.2164652987
 H          6.5149322789       -4.5380695532       -0.3608385240
 H          5.5238622583       -5.0770334335        0.7244252893
 O          6.0863782162       -2.3438679844        1.6735861275
 H          6.9607168490       -2.0420086335        1.4077097102
 H          5.8725629367       -1.8674071412        2.4953476979
 O          7.3008937734        0.2357170454       -4.1761552237
 H          7.2886428990        1.0422743672       -3.6554106942
 H          6.4051676526       -0.1564567003       -4.1346412753
 O          5.9703938648        3.8669947871        0.0707297527
 H          6.4200427453        3.6682349049        0.9077481920
 H          5.1995524020        3.2686086867        0.0449104542
 O         -1.0682129663        5.2816642210       -0.0453609971
 H         -1.4063730921        4.4291565229        0.2916354084
 H         -1.1162177866        5.1875326033       -1.0166445522
 O         -7.7029790140        3.8500693859       -2.4691857261
 H         -7.8956676637        3.5147111747       -1.5802860359
 H         -8.2481002748        3.2920932143       -3.0555711821
 O         -5.2744039742        5.2165342009       -1.7591155127
 H         -6.1830234579        4.9869140259       -1.9985396744
 H         -4.7841329616        5.3185626967       -2.5886901541
 O         -1.2297127584        4.8328149327       -2.6856351591
 H         -0.9982753802        3.9266943975       -3.0144108676
 H         -0.4548731030        5.3687758622       -2.8937573889
 O          7.3833357581        2.5563003678       -1.8531226586
 H          6.5355603495        2.1260717828       -2.0773340762
 H          7.1179725091        3.1972174292       -1.1685828670
 O          2.8332593083       -2.1878016079        2.1850898346
 H          1.9256747352       -2.5001911600        2.0560614095
 H          2.9399021523       -2.0019285909        3.1380717307
 O         -0.6835707746        2.4768226969       -3.7097285752
 H          0.1339878934        2.0498412728       -3.3993034788
 H         -1.4302921353        1.9510380257       -3.3435380055
 O         -3.1482685555       -3.0390892555       -3.8303668280
 H         -4.0578318163       -3.3272728473       -3.7271554022
 H         -2.9821766285       -2.4361616311       -3.0573839036
 O         -8.6334181476       -0.2579736508       -2.1188413423
 H         -8.3949665345       -1.1967987260       -2.0307629662
 H         -7.7822668174        0.2266247029       -2.0027942061
 O         -2.4566864550        3.0309928677       -5.7530318090
 H         -1.6724406995        2.8515570181       -5.2080506436
 H         -2.9474189997        2.2047324930       -5.7911084787
