  191
       -320.31168809
 H          0.5555864582       -1.2805837168       -1.3327511427
 C          1.1517448534       -1.7464319582       -0.5465605488
 H          0.9526495174       -2.8207669805       -0.5256885982
 C          0.7926170539       -1.1314834157        0.8030504302
 H          1.1844753963       -0.1100063127        0.8280835711
 H          1.2611217250       -1.7141298851        1.5959133297
 N         -0.6526706979       -1.1623180427        0.9923555068
 H         -0.8899663256       -0.8198100454        1.9176687702
 H         -1.0731503357       -0.5261067200        0.3249625115
 O          2.5097939919       -1.5299964982       -0.8861493257
 H          3.0331734490       -1.5814903162       -0.0665916233
 O         -2.1837333687       -1.8619373369       -1.5264232496
 H         -2.7934537209       -1.9342095697       -0.7663150159
 H         -1.8521989597       -0.9411307798       -1.5020400792
 O          1.6798291119        1.5131752001       -2.0903081086
 H          1.3918780988        0.6652072818       -2.4723759597
 H          2.0663137653        1.3125036404       -1.2192108962
 O          6.6563362377       -0.6582197685        1.6952257016
 H          7.1970946941       -0.8918973992        0.9260145696
 H          6.6010873965        0.3134412428        1.7194233517
 O          0.6960076618       -3.2359541139       -3.7919571300
 H          0.1554877583       -3.6589629813       -3.0913538114
 H          1.6116370574       -3.5005248239       -3.6244484075
 O         -3.6658752861       -4.4822422335       -2.1436139537
 H         -2.6987390132       -4.5166821864       -2.1910196727
 H         -3.8903042430       -4.6645627744       -1.2233585557
 O         -1.6577278646       -3.5944095018        1.1824874545
 H         -1.3196690236       -2.6614071395        1.0086454710
 H         -0.9007554550       -4.1811867841        1.0331482578
 O         -4.9691878263       -2.1410627922       -2.4659797395
 H         -5.6204025301       -2.3740735790       -1.7885089143
 H         -4.3829175932       -2.9273797036       -2.5003857872
 O          2.5324535163       -3.7294399389        1.6705212967
 H          3.4093883113       -3.7943876836        1.2630583465
 H          2.6953807098       -3.4365401335        2.5878033456
 O          4.7533192375        0.1564687547       -1.6814468058
 H          5.5584271982        0.6801398279       -1.4989342919
 H          4.0417162439        0.4993668210       -1.1011541888
 O         -0.8800251976       -4.1701733773       -1.8171818279
 H         -1.2645338824       -3.3027694153       -1.5584566788
 H         -0.4263965863       -4.5253357471       -1.0415206196
 O         -4.3144691584        0.2459411026       -1.3682570720
 H         -4.2732402513        0.8541473638       -2.1217884937
 H         -4.3477518183       -0.6557787135       -1.7456538618
 O         -0.9617679234        0.6317045687       -4.2620814558
 H         -0.0362036167        0.3261119323       -4.2156507948
 H         -1.4680569238       -0.1936879246       -4.3909061418
 O         -1.6441732066        1.7679312094        4.7150800187
 H         -2.4253572780        2.1985458490        5.0614617607
 H         -1.9703465082        0.9924661428        4.1951839933
 O          0.5633119216        0.5375123476        3.5715552083
 H          0.2112105416        0.9813234574        2.7738799345
 H          0.0360825770        0.8806672135        4.3000273860
 O         -0.4261080589        1.8396676215        1.3937596601
 H         -1.2815155812        1.3855728789        1.2790171798
 H         -0.5859140357        2.7213567514        1.0134759505
 O          2.1340453793        4.8726343321        0.0959097366
 H          1.6532351881        4.6387218308       -0.7113575873
 H          1.5431286944        5.4747815132        0.5978258817
 O         -6.2698624088       -3.0268864618       -0.1948386115
 H         -6.9413920760       -3.6936307650       -0.0553867299
 H         -5.4181627249       -3.4297717867        0.0984095896
 O         -1.2883722263        0.6885052918       -1.5689747821
 H         -1.8421937245        1.4294192178       -1.2998635572
 H         -1.1574072213        0.7790778728       -2.5330606462
 O         -0.1733767765        3.8836184361        3.6492797495
 H         -0.5804090775        3.1196053285        4.0911588241
 H          0.5670864054        3.5246354117        3.1273108067
 O         -2.9295951095        0.9061419195        0.9293934601
 H         -3.4890632681        1.4721988467        1.4946460805
 H         -3.3335859482        0.8961490831        0.0470794292
 O         -4.3319091963       -0.4848754711       -4.5682262347
 H         -4.7237147758       -1.0635290946       -3.8931160846
 H         -3.5262339338       -0.9500919500       -4.8242669954
 O         -2.0670237383       -3.0152608054        3.7643370286
 H         -1.1758657393       -2.8901220791        4.1325716721
 H         -1.9092383294       -3.3078280083        2.8373928126
 O          3.4364462046        2.3644806012       -3.8881394917
 H          3.0196385022        3.1147682496       -4.3121204993
 H          2.7979063627        2.0563890565       -3.1958317259
 O         -1.1972394769        4.1094340691        0.0569095749
 H         -1.9913469074        3.7331184637       -0.3688429208
 H         -0.5310372234        4.0996890856       -0.6707762900
 O          6.1656942450        2.0514099417        1.6007953644
 H          5.6644295339        2.1056025331        2.4293969787
 H          5.6777557813        2.6652693745        1.0202790987
 O          3.9985655373       -0.9265113535        1.3770850366
 H          3.6648477274       -0.7567328027        2.2807546748
 H          4.9710210880       -0.9468653318        1.4543979128
 O          5.8414804503       -3.0019641377        3.1376307388
 H          6.2310053990       -2.1496315445        2.9062582042
 H          5.6172460425       -3.4163633876        2.2898201542
 O          5.5146940071        3.3415281893       -2.4118393734
 H          4.8400804507        2.9355224805       -2.9916056737
 H          6.2196083760        2.6967924978       -2.2898009223
 O          3.0987420594        1.2414515796        0.1514851828
 H          3.4522770129        0.5245362722        0.7218120113
 H          3.6458772840        2.0486374158        0.2487669438
 O         -6.7951801476        1.8086108015       -3.3588389412
 H         -7.1058949836        1.6675491277       -2.4499060054
 H         -6.8741449444        0.9669225556       -3.8131702431
 O         -4.5091461143        2.5726141173        2.3691286316
 H         -3.8321084982        3.2669874569        2.5410279318
 H         -5.0406234847        2.9099449475        1.6346426799
 O          3.3032235503       -2.7518537613        4.0985304974
 H          3.2972544526       -1.7837552757        4.1583073188
 H          4.2399711429       -2.9734619648        3.9280741106
 O          0.4589626414       -2.2283819493        4.2827733869
 H          1.3597241557       -2.5625950843        4.3424880032
 H          0.5150514942       -1.3018711030        4.0059211997
 O          3.9377772477       -0.3630841955       -4.1845487507
 H          4.2610106503       -0.2036700739       -3.2718047697
 H          3.9062642306        0.5215834872       -4.5679403000
 O         -7.5878558200        1.4655057494       -0.7106844395
 H         -8.4630030418        1.5095093702       -0.3261033426
 H         -7.1169180561        0.7055814933       -0.2673433317
 O         -2.4742360943       -0.3703782469        3.3809087848
 H         -2.3136927281       -1.3024657390        3.6314942172
 H         -3.4327078978       -0.2827458925        3.2396094763
 O         -6.1756089809       -0.3776562970        0.4555312530
 H         -6.2907790751       -1.3357269762        0.3154223697
 H         -5.3814745336       -0.1592489340       -0.0825203958
 O          0.4515506969        3.8874219763       -1.9929172992
 H         -0.2137072875        3.8636919788       -2.7042727812
 H          0.8388523255        2.9875465585       -1.9926264573
 O         -1.4607671051        3.2919776500       -3.8761625427
 H         -1.1920538644        2.3957683304       -4.1381797153
 H         -2.4216423864        3.2675940958       -3.9071724840
 O         -2.5990306718        4.4152754363        2.4871498729
 H         -1.7963412677        4.2803242043        3.0243727953
 H         -2.2797549596        4.4214512945        1.5765590809
 O          1.2966160381       -0.6151385885       -3.6921511959
 H          2.2298673903       -0.5720129342       -3.9767806362
 H          1.0304250374       -1.5564823713       -3.7311682767
 O          3.1756953794       -0.0323733937        3.7668508608
 H          2.2271435898        0.1967292826        3.7119148801
 H          3.6498634311        0.8153774577        3.7945783471
 O          7.0853560437        1.3325904901       -1.0527769556
 H          7.5854029817        0.5041039710       -1.0003601665
 H          7.0046361546        1.6653154182       -0.1492999953
 O          4.1626328323        2.4901683831        3.4655264921
 H          3.3786202089        2.7214543682        2.9079054095
 H          4.1984108346        3.1471453879        4.1600859824
 O          0.2061361392        5.9728133483        1.5896177561
 H         -0.4618509924        5.5173904794        1.0553905695
 H          0.1552104970        5.5686440603        2.4636568725
 O          7.9120610232       -1.3001805888       -0.7156598525
 H          7.1248982496       -1.7636762529       -1.0704851162
 H          8.6682324014       -1.8619572493       -0.8832955785
 O          3.4166532351       -2.9317260200       -3.0146143981
 H          3.6178813132       -2.2589005993       -3.6767210985
 H          2.9964145664       -2.4440041875       -2.2701504524
 O         -5.7539246785        3.3434875223       -0.0343308086
 H         -6.1079884792        4.1968631605       -0.2852296180
 H         -6.4073631427        2.6678039757       -0.3127331020
 O          1.9692043068        3.0482270387        2.0733464081
 H          1.5608651044        2.2893376068        1.6348748491
 H          2.0896360885        3.7193224560        1.3670715207
 O         -3.2523861091        2.8952413669       -1.1295379338
 H         -3.4422431025        2.7404583766       -2.0676112217
 H         -4.1094541830        3.0481681058       -0.7003270573
 O         -1.9529130983       -1.8891484753       -4.2437556664
 H         -2.1544190064       -1.9887063206       -3.2923018465
 H         -1.1866868223       -2.4480600291       -4.4057886898
 O         -3.7151280983       -1.6838356977        0.6840248541
 H         -4.0069695848       -2.1591518795        1.4753708947
 H         -3.3193026734       -0.8502425567        0.9876187420
 O          5.0868930333       -3.9560687169        0.6209136360
 H          5.2397492449       -3.2927304144       -0.0935512189
 H          5.3062706426       -4.8129138690        0.2561889619
 O         -4.7039039805       -2.8870711972        3.0227440293
 H         -5.0607978680       -2.0399119413        3.3138956474
 H         -3.8726924933       -3.0154067581        3.5064794546
 O         -5.1865979139       -0.0487181050        2.9921901813
 H         -5.0900317575        0.9133626170        3.0313272869
 H         -5.5574266896       -0.2184824270        2.1033670791
 O         -4.1598573509       -4.4724882587        0.7032099972
 H         -4.4918885100       -4.4029875725        1.6050543370
 H         -3.2437410707       -4.1198769108        0.7657950408
 O          0.5526877938       -5.0529937891        0.5218723521
 H          1.2768408880       -4.5358398302        0.9516883540
 H          0.6512056708       -5.9549125172        0.8256541520
 O          5.5363114006       -2.3510749505       -1.4405011949
 H          5.1740772795       -1.4321127699       -1.4050421105
 H          4.9658387413       -2.7850754701       -2.1053664797
 O         -4.1081421698        2.0013021654       -3.5662739014
 H         -5.0669349591        2.1769849768       -3.5864119328
 H         -4.0090674374        1.1711054274       -4.0806295551
 O          4.5196870332        3.4999755237        0.0303892752
 H          3.8320698488        4.1805374793        0.0694256359
 H          4.8889832507        3.5352096648       -0.8846386461
