  129
       -218.89584527
 O         -1.5939782868        3.3525485391       -2.4851047272
 H         -0.7908322084        3.5553351688       -2.9749106184
 H         -1.9426537378        2.5364119553       -2.9094996523
 O          4.8725954298        1.0848142091        1.6404307992
 H          4.0832950153        1.0577010798        2.2091399218
 H          4.8598265527        1.9600536648        1.2141718564
 O          0.8430231916        2.8448839066        3.7906991188
 H          1.0191833098        3.1992474277        2.8757084388
 H          0.7016646807        3.6073742619        4.3501208657
 O         -0.9530845324        0.7742328252        3.5049564341
 H         -1.8437709106        1.1508440089        3.3219771115
 H         -0.3916441047        1.5210634621        3.7768737363
 O         -3.0336626684        4.2188152332        1.4232765680
 H         -3.7025984933        4.1572748659        0.7323632392
 H         -3.2206395770        3.5184535890        2.0706952208
 O          0.1720563805        0.7750819109        1.0975359385
 H         -0.3664002631        0.7219287867        1.9149061956
 H         -0.2372183157        1.4830918314        0.5663805892
 O          1.3633444065        3.6763972607        1.3463189423
 H          1.8230527735        3.0088665056        0.8066632419
 H          0.4679947951        3.6799773802        0.9536962202
 O          0.7175533767        2.4250710124       -4.0330047207
 H          1.6795733427        2.3230869216       -3.9389454281
 H          0.4182606353        1.6831576845       -4.5779621046
 O          5.5256042229       -2.5280829118        0.1541125587
 H          6.2364052119       -3.0012632127        0.5863511397
 H          4.7212723724       -2.6666870337        0.7064434082
 O         -1.5035095747       -4.7278581787        0.5189497262
 H         -1.6876508237       -4.0227984268        1.1938600666
 H         -1.1419075348       -5.4758915584        0.9958074809
 O          5.6989024648        2.1743699762       -2.1054101202
 H          6.0318540547        1.3580651321       -1.6878558962
 H          5.5468404623        2.7847273488       -1.3750888001
 O         -0.3307225904       -0.0695821213       -4.8410135424
 H         -0.2260283565       -0.5908665263       -5.6365573816
 H          0.0641713727       -0.5954529491       -4.1107768037
 O         -0.9585283780        3.0527850738        0.1705437136
 H         -1.1214236752        3.1205750308       -0.7862910058
 H         -1.6910293441        3.5185194864        0.6256443219
 O          0.0620859696       -1.7742646729        3.2734842567
 H         -0.2627876891       -0.8808166607        3.4841622840
 H          0.4995052316       -1.7082716610        2.3998759456
 O          3.3984896451       -0.3829787358       -0.0785834366
 H          4.0517299927       -0.0884377342        0.5859397472
 H          2.6884039850       -0.8743352033        0.3679915317
 O         -6.3469992621       -0.0809871597        0.8086902978
 H         -7.2914579318       -0.0272836404        0.6643073273
 H         -6.1252163329       -1.0469591931        0.8494679106
 O          2.6821745651       -4.7252491081       -0.6614119360
 H          3.0198070593       -4.4401877136        0.1966273304
 H          3.3161806818       -4.3683000853       -1.3251966184
 O          0.4209211486       -3.4654527463       -1.0320171967
 H          1.2578586649       -3.9999959698       -0.9674806143
 H         -0.2729641066       -4.0099889057       -0.6252173059
 O          0.1695612684        1.0551157469       -1.7551607350
 H          0.4215295345        0.1581452729       -2.0409301148
 H          0.2351390353        1.6154818592       -2.5514801869
 O          3.3324717179       -3.0555361346        1.6117791816
 H          2.5254637508       -2.6748363206        1.2354701362
 H          3.3545066393       -2.6794795450        2.5192456360
 O         -5.3439745768        0.2285752849        3.4272294895
 H         -5.7958861799        0.2006959616        2.5691957365
 H         -4.9969176934       -0.6668123612        3.5635452982
 O         -4.3714188039       -2.3975514552        3.5207915735
 H         -3.5029291397       -2.5417978875        3.0716628885
 H         -4.3395973781       -2.8745639392        4.3496828318
 O          3.4109966642       -0.8902461719       -2.7288097347
 H          3.4492951043        0.0225165519       -3.0846861598
 H          3.5598476704       -0.7786072857       -1.7705354370
 O          6.4318373346        0.0601560280       -0.5072097361
 H          6.1910232470        0.4410584127        0.3457992907
 H          6.1200840333       -0.8555348541       -0.4721632192
 O         -5.7845927676       -2.6325990321        1.1433201683
 H         -5.3782920292       -2.6202105091        2.0253174215
 H         -5.2143041184       -3.1986421233        0.5983432870
 O         -4.1582155136       -4.4204242413       -0.2596158948
 H         -4.5134748885       -5.2980834151       -0.4013946527
 H         -3.2094925188       -4.5261616002       -0.0688667944
 O          0.8320283392       -1.3685093143       -2.8032060333
 H          0.6480069002       -2.1812442072       -2.3100206928
 H          1.8191190793       -1.2741570079       -2.8315169750
 O         -2.5924063305        1.2206192098       -3.7811506526
 H         -1.8566042802        0.7734736890       -4.2260012223
 H         -3.0484270879        0.5370578760       -3.2203841816
 O          4.4549532011        3.4330609222        0.2215159223
 H          3.6737003598        3.0318408405       -0.1997587021
 H          4.1351093256        4.2089079133        0.6843976827
 O         -4.0694725442        3.4559272272       -1.1873621385
 H         -3.1683117020        3.6288787374       -1.5007303781
 H         -4.5633781152        3.2491471037       -2.0042997546
 O          2.3206712017        1.9645994720       -0.5945006167
 H          1.4155134094        1.7113394486       -0.9110765606
 H          2.7401209381        1.1018359236       -0.3646437830
 O          2.8297007226       -1.6608003930        3.8317748881
 H          2.8003365984       -0.7492967880        3.4898251903
 H          1.9038644452       -1.8980731152        3.9821973089
 O         -4.0178909863        1.2046036320        0.2093909270
 H         -4.9281636980        0.9276252274        0.3998075951
 H         -4.0509520668        2.0469950323       -0.3050274677
 O          2.3738710756        0.8276402200        2.7050298732
 H          2.0464827230        1.4663047717        3.3516555272
 H          1.6786837870        0.8069277772        2.0139984715
 O         -3.2918251399        1.7898510509        2.7448390476
 H         -4.0359182250        1.3302424119        3.1899764411
 H         -3.3865313267        1.5310457283        1.8059232235
 O          1.1045958523       -1.6275268978        0.7500679295
 H          0.6389500929       -0.7668790231        0.6440770156
 H          0.7626951741       -2.2354191141        0.0557767918
 O          4.4461183065       -3.4457942828       -2.2178087115
 H          4.9835735428       -3.1191311251       -1.4761025893
 H          4.1115435632       -2.6499096277       -2.6534688987
 O          3.2767079588        1.7728165601       -3.1531983402
 H          4.2266883818        1.9813960165       -3.0268599837
 H          2.8979033054        1.9370503717       -2.2661052367
 O         -4.8541363588        2.7807467992       -3.7011554164
 H         -4.0794325181        2.2111972581       -3.8584344679
 H         -4.7843963204        3.5078598139       -4.3210054541
 O         -2.1137540105       -2.7772641801        2.1838222926
 H         -2.2474424753       -2.1047434018        1.4791837116
 H         -1.3211277541       -2.4687484388        2.6906945973
 O         -2.2023176809       -0.7841798429        0.2240255340
 H         -1.4048222432       -0.2549114840        0.0973278451
 H         -2.9367315498       -0.1357062326        0.2606934190
 O         -3.0314644453       -1.1168036998       -2.3693252061
 H         -2.7771290700       -1.9555511880       -2.7547784038
 H         -2.7227189181       -1.1289173243       -1.4427543368
 O         -5.8452349340       -0.7889972597       -2.5550978392
 H         -4.9079622308       -0.9881545690       -2.4215111178
 H         -5.9151846738        0.1651529934       -2.6174464595
