  459
       -779.14837189
 O         -0.8776779860       -6.3719021960        2.3886013913
 H         -1.1729401034       -6.0984234308        3.2725165754
 H         -1.6951807127       -6.5974720534        1.9166720041
 O          3.6614330278        4.6247125452        3.9942013238
 H          4.6060372217        4.5988089553        3.7293665793
 H          3.4065720669        5.5563723965        3.9013958828
 O         -1.2781262139       -3.3133180960       -3.2909748237
 H         -1.4113055296       -2.3451247678       -3.2293923667
 H         -0.9652033977       -3.5982373921       -2.4233229930
 O          1.4708243059        2.6470233972       -1.1238566018
 H          2.3145269392        2.2138556601       -0.9295000983
 H          1.2270272914        2.4140661911       -2.0427925218
 O         -3.1292304916        3.2165068035        0.4483853348
 H         -3.3268665014        2.7541117971        1.2848148097
 H         -3.1283770715        4.1750615516        0.6425524406
 O          2.9812780132       -1.3663510985        3.5018122835
 H          3.0656936657       -2.2599991424        3.8812593433
 H          3.4173365633       -0.7613372143        4.1311311945
 O          1.0284773312       -0.4181133197       -2.7014432209
 H          0.0528760867       -0.4137912467       -2.8052798245
 H          1.2337354096       -1.0833294292       -2.0120898819
 O          0.6317786877       -0.1539808842        3.7873418746
 H          0.7500234235       -0.1615978629        4.7606426124
 H          1.4629034572       -0.5420971446        3.4445990042
 O         -1.4767328439        1.8845068223       -1.7946924870
 H         -0.8661043267        1.8594718232       -2.5584245806
 H         -1.6464629204        2.8241395210       -1.6161453794
 O          0.4548428968        2.1590827569       -3.5384225594
 H          0.9753950905        1.8600715714       -4.3041056469
 H          0.2672307264        3.1082960569       -3.7116765968
 O         -0.6755007304        2.1604484691        3.2612745635
 H         -0.0789453796        1.3970475201        3.3369813688
 H         -0.4313979127        2.6525173330        2.4515591914
 O          5.0436452918        1.9795701441        2.8230342084
 H          5.0875127996        1.0187938520        2.9585879340
 H          5.0738267513        2.3406901676        3.7306616825
 O          4.6862531743       -3.1673751887       -0.5547026849
 H          4.2341453555       -2.7544867000       -1.3337026111
 H          5.6435328095       -3.0035955703       -0.6522186510
 O         -1.4979538535        2.5311621008        5.8069253657
 H         -0.8099551164        3.0713444901        6.2110349635
 H         -1.2213482954        2.4555556077        4.8723394189
 O          1.5889458718        4.3009941896        2.1418840783
 H          1.7305586698        4.7058461791        1.2651809814
 H          2.4016218798        4.4397470244        2.6527779917
 O          2.3609147098        2.2242193651        4.2643315888
 H          2.9615939621        2.9804777380        4.1501922594
 H          2.1459373442        1.9130185950        3.3596694578
 O         -1.6308985513        4.6209188412       -1.5683736342
 H         -1.2635216921        5.1595711776       -0.8511172886
 H         -2.2922240354        5.1794414996       -2.0154583243
 O         -6.3012713619       -4.5137918173       -1.0528617471
 H         -7.2327701148       -4.8258197695       -0.9780805659
 H         -6.3245572397       -3.5555949520       -0.8308319741
 O         -6.8273011580       -2.7551182801        3.7011227566
 H         -6.1811293059       -2.9244798121        2.9850580403
 H         -6.2915892305       -2.7249298035        4.5040028189
 O          3.4365502470        0.6607561507       -3.0276811706
 H          2.4885852409        0.4545765826       -3.0625904958
 H          3.6316978142        0.8342559040       -2.0889171485
 O          1.2305635314       -4.4431398450       -4.1981366831
 H          1.2788767081       -4.4025874097       -3.2227382753
 H          0.9990744907       -3.5378032473       -4.4856942366
 O          1.1415945516       -1.9419005262       -0.5362323410
 H          1.2316698195       -2.8463044552       -0.8938166420
 H          1.9521811919       -1.7824438245       -0.0114292271
 O         -4.3261332952       -1.9840647166       -5.4334998488
 H         -4.2925855431       -1.1097258615       -5.8443132248
 H         -4.3238772248       -1.8135757058       -4.4566323007
 O         -3.7392864426       -3.2650353359       -1.1795749615
 H         -2.8182631068       -3.5598461350       -1.0727141363
 H         -4.2846316440       -4.0539129144       -1.2427851711
 O         -7.4300540658       -1.7342200449       -2.8313193814
 H         -7.8391466859       -0.8440865635       -2.8329243103
 H         -7.4299796807       -2.0391588449       -3.7493528622
 O          8.8724612304       -0.2951321793       -3.9017669491
 H          8.2213313630        0.0777814284       -4.5141294633
 H          9.5628639836        0.3890034301       -3.7453177506
 O         -5.5319285507        5.3416008596       -2.3579219468
 H         -5.3170516130        4.4406494156       -1.9897514832
 H         -6.0844971152        5.1491491405       -3.1261257871
 O         -8.6813219429       -2.0015669613        1.1578385167
 H         -9.3141900571       -1.4707189396        1.6719770948
 H         -9.0978365148       -2.1856779951        0.2842680185
 O          8.6620487581       -0.2444059135        1.6910133081
 H          9.2931548303        0.0091156441        0.9887974242
 H          7.7993854028       -0.4898436575        1.2618031792
 O         -1.5393942252       -0.7096323126       -3.0576392399
 H         -2.1133430154       -0.5701933258       -2.2843678786
 H         -1.7948402762       -0.0889672324       -3.7751511868
 O         -4.5866385165       -1.4095739540       -2.8860248540
 H         -5.5497986391       -1.4777560036       -2.7763248202
 H         -4.2006818181       -2.0191948097       -2.2173009850
 O         -4.7980822949       -2.5608516069        1.9042415607
 H         -5.2046146033       -2.3766097915        1.0323650324
 H         -4.0329921560       -3.1523955566        1.7525140767
 O         -5.0779238729        2.9845398491       -1.3495038419
 H         -4.7271098534        2.3289012677       -1.9889877291
 H         -4.3841932334        3.0628776948       -0.6608066063
 O          6.3256904688        1.6202900365       -2.6649885732
 H          7.1429723304        2.1306176432       -2.4841216678
 H          6.4289076407        1.2543709964       -3.5547698800
 O         -0.4691026712        3.2468449116        0.8301538347
 H         -1.3862916203        3.2166163272        0.5084585062
 H          0.1246039045        3.1641831496        0.0747501274
 O          3.8978244815        3.6241515595        0.9277708091
 H          4.1488887370        3.4525189135        0.0068741360
 H          4.4125724536        3.0294027411        1.4925158812
 O          3.3272665038       -1.3585576565        0.8436668031
 H          3.2820688494       -1.4191394735        1.8131458570
 H          3.9072929760       -2.0666913931        0.4976255372
 O          3.9878967844       -5.5383959111       -1.2899191981
 H          4.3019882394       -4.6929556921       -0.8722305063
 H          3.8418132789       -6.1667840789       -0.5723889594
 O         -2.1593522859        5.0206067062       -5.1222485535
 H         -2.5174300050        5.7130331788       -4.5506104733
 H         -2.8237687895        4.3015618569       -5.0631437660
 O         -2.0513168880       -4.9654019104        4.3472315760
 H         -1.9718397964       -4.4738172020        5.1688736392
 H         -3.0103115207       -5.1896026782        4.2702926615
 O          7.7200426382        2.1844427691        2.4961889228
 H          6.7412990074        2.1307236704        2.3985467986
 H          8.0381761575        1.2842051300        2.2944591050
 O          4.5670877516        2.1064567854       -4.9913855342
 H          3.8438538823        2.1953575575       -5.6214883976
 H          4.1823421038        1.6067079292       -4.2348951325
 O         -6.3297489357       -2.0058657701       -0.1674606441
 H         -7.1405156045       -1.9048951479        0.3574953787
 H         -6.2872633234       -1.2368046876       -0.7705667653
 O         -4.5548987774       -2.5931370555        5.2026099931
 H         -4.3163409454       -1.8754447497        4.5903760105
 H         -3.7657664828       -2.7288227159        5.7497015851
 O         -4.7546001393        0.7416870199        0.7259552025
 H         -5.0775478939        1.6432951982        0.9112743434
 H         -5.2782501131        0.1813914107        1.3238716108
 O         -6.5489718386       -0.2671946268        2.4704235543
 H         -6.8089882356       -1.1571593062        2.7467665296
 H         -6.5599194497        0.2833528937        3.2783013813
 O          1.1909237931       -1.8445458725       -4.9363860016
 H          1.1795111555       -1.3220929625       -4.1019925537
 H          0.4292050366       -1.5522045011       -5.4668027538
 O          3.6091193793        1.0372266237       -0.2758876078
 H          4.5519771378        1.2645208917       -0.1207828713
 H          3.5260870816        0.1052738827        0.0059816864
 O          7.4113559368       -2.9060297141       -0.6578394859
 H          7.6577591640       -3.6953248128       -1.1736448880
 H          7.8613120132       -2.9921599904        0.1987740589
 O          0.4879771539       -3.8637722128        2.6119423226
 H          0.0610046899       -4.7158020903        2.4391714746
 H          1.3861223526       -3.9229011807        2.2504585504
 O         -0.3927443645        6.5792735979       -0.0423193826
 H         -0.3116007898        7.3404372849       -0.6174493793
 H          0.4468735758        6.0503020444       -0.1704425806
 O         -3.8412249658        1.2347864315       -2.8929473649
 H         -4.0859778208        0.2906598594       -2.8493887738
 H         -2.9802990414        1.3466062760       -2.4429543778
 O         -3.2076059209        6.3864952575       -2.8918304935
 H         -3.2687205431        7.3209974835       -2.6991143945
 H         -4.1159213676        6.0104467948       -2.7405535811
 O         -2.9770851225        5.8284761111        0.9834793131
 H         -2.1184988824        6.2098284104        0.7676330343
 H         -3.0237849119        5.7954520339        1.9722141831
 O          3.6645143506        0.3062597722        5.5224485493
 H          3.1289196471        1.0211588895        5.1005316927
 H          4.4836248276        0.7641815042        5.7441860382
 O          1.7980348685        1.6872257195        1.6630016273
 H          2.5838013847        1.5388251291        1.1043984450
 H          1.6720001891        2.6646297771        1.6834807249
 O         -1.1589746743       -6.7772486629       -1.4842959039
 H         -0.9113648620       -6.6944457694       -2.4471458163
 H         -2.0599493492       -7.1116452625       -1.4761403374
 O         -1.9963063786       -3.2817676013       -5.9845223809
 H         -1.6215824011       -3.4857893546       -5.1149639671
 H         -2.9091921974       -2.9783532239       -5.8232673822
 O         -6.2375527235        0.3498596377       -1.4544942581
 H         -7.0272107791        0.6763284209       -0.9827902252
 H         -5.5037778533        0.5822012365       -0.8527885433
 O          0.7945709543       -6.4854849356        0.2835204867
 H          0.2687420403       -6.4831322329        1.0996887657
 H          0.1971556513       -6.8374466338       -0.4015494870
 O          6.5821922670       -5.5943911126        0.4346377966
 H          7.1772903927       -5.5738224313       -0.3275051693
 H          5.9978210908       -6.3430148429        0.3129870971
 O         -9.5135377245       -2.5272576150       -1.2937546750
 H         -8.7267755404       -2.3392230091       -1.8506238903
 H        -10.1551829025       -1.8251760719       -1.4898601939
 O         -3.3763606539       -6.4308058020        1.1073390083
 H         -4.2640004464       -6.3946721405        1.4903016488
 H         -3.5222749296       -6.4384933429        0.1399630206
 O          1.5228362922       -4.4367563358       -1.4884643858
 H          2.4359843823       -4.7821382930       -1.5248432661
 H          1.0542330686       -5.0258071285       -0.8800396610
 O          5.7179288585       -3.5308168592        2.0118148054
 H          6.0767690575       -4.2466506161        1.4596804862
 H          5.9280694387       -2.6895053366        1.5477465308
 O         -3.1665690681       -5.1734849128       -3.6994597344
 H         -4.0685056763       -4.8745716071       -3.9227013559
 H         -2.6296100178       -4.3819352931       -3.4990477745
 O          6.2977479634       -1.1290066793        0.9729951922
 H          5.8217107160       -0.6807817376        1.6877999876
 H          5.9086182971       -0.8704949995        0.1023898059
 O         -0.6846478627       -6.4239082707       -4.0226417987
 H         -1.5480085506       -6.0586882901       -4.2589680807
 H         -0.0230710719       -5.7328206861       -4.2093318235
 O         -3.2504921052        1.8876123559        2.7918009095
 H         -2.2915717381        1.9541928544        3.0018398099
 H         -3.5007484346        0.9505317920        2.8878943758
 O         -6.0584397238        3.0294721571        1.3867227886
 H         -6.1619737479        3.1925117530        2.3391458232
 H         -5.9725952285        3.9065381575        0.9708664070
 O          9.3024047044        2.9241299303        0.3925875312
 H          9.9309662639        2.2000437681        0.3072930500
 H          8.7420752416        2.7193845637        1.1661440298
 O          1.9356355278        2.0722150483       -5.7691096151
 H          1.1260389231        2.3658375101       -6.2272012838
 H          2.1696548940        1.1814542035       -6.1009737301
 O          2.6716094407        4.0800559308       -3.7980385074
 H          2.5094226842        3.4502256281       -4.5132605882
 H          1.8424702052        4.5642808985       -3.6784331455
 O          1.7696502719        5.2189637062       -0.4072314147
 H          2.5936710023        5.6207437599       -0.7827791561
 H          1.7107278506        4.3181612462       -0.7858234057
 O         -5.6382881851        5.5570717011        0.4303069651
 H         -5.8773765454        5.6794669932       -0.4979563651
 H         -4.6879241095        5.7480426835        0.4944227083
 O         -0.7904352455       -1.0989503804       -6.6249477458
 H         -0.5079589208       -1.0916142161       -7.5380389214
 H         -1.2780321661       -1.9621780808       -6.4679258655
 O         -0.5705195060        2.8676293685       -6.3736480632
 H         -1.0970758367        2.2150142723       -5.8746592120
 H         -0.9971567444        3.7172230186       -6.2332182033
 O          5.6826135715       -5.0879541181       -3.3228606420
 H          5.0472907584       -5.3606153293       -2.6345799693
 H          5.8246101911       -4.1231771052       -3.2102376487
 O         -6.6596842879        1.0203732697        4.8231781892
 H         -6.7208769807        1.9734974343        4.6923415216
 H         -5.8158863112        0.8645479558        5.2867652123
 O         -8.7999305849        0.6097932428       -2.8849903312
 H         -9.6553414282        0.3595576347       -2.5033818956
 H         -8.5229550110        1.4296370028       -2.4289535822
 O          0.7258396152       -3.3168864882        5.3269588270
 H         -0.1405012393       -3.2973278359        5.7616981501
 H          0.5498634685       -3.4884863763        4.3804622622
 O          5.3966091805       -0.6520529770       -1.4822500978
 H          5.7507898782       -1.3318757731       -2.0758005596
 H          5.6972806718        0.1954093003       -1.8510618035
 O          7.9174700265        1.9460168801        5.2072696778
 H          8.1432609394        1.0074715969        5.2403865426
 H          8.0001207913        2.1972026675        4.2679981860
 O          3.7368670141       -3.8410500335       -4.8039257935
 H          2.8134477156       -4.1774597930       -4.7245627538
 H          4.3278251159       -4.5389806734       -4.4799527931
 O          8.3117320131       -0.6780413868        4.3497241842
 H          8.1481651669       -1.6420974746        4.3391746205
 H          8.7626736919       -0.4800710043        3.5184708612
 O         -5.8420685290       -5.2644593922        1.5319740513
 H         -5.8413244915       -5.0203272421        0.5858021815
 H         -6.7689825416       -5.1417073671        1.8021930547
 O         -1.9527509494        0.8239890368       -5.1596309279
 H         -1.5181462875        0.1850754039       -5.7553304604
 H         -2.8975401249        0.8274638908       -5.4076718036
 O         -5.9253004550        6.1696212632        3.1323170244
 H         -5.9832622566        6.1036573985        2.1670873750
 H         -4.9914379619        6.2817375648        3.3463689081
 O          2.8905969284       -0.3629383265       -6.3697305191
 H          3.7875660401       -0.6588566888       -6.1845502565
 H          2.3084277982       -0.9848696557       -5.8818249580
 O          4.7816615734        6.0880185085        1.3042764162
 H          4.4395519770        5.1654707143        1.1840063193
 H          4.1365840326        6.5421598918        1.8663286843
 O         10.5309159260        1.5545561909       -2.9863026272
 H         10.7889923806        1.2521937674       -2.1063192120
 H          9.8728432867        2.2557085298       -2.8350771602
 O         -1.2412184894       -4.2059531398       -0.6551701445
 H         -1.4499367696       -4.1249391142        0.2864783393
 H         -1.2504543301       -5.1572232376       -0.8870397536
 O         -5.7453092139       -4.5379344813       -3.7273729717
 H         -6.0286312964       -4.4804252161       -2.7973766618
 H         -6.2889055259       -3.9239269961       -4.2346281130
 O         -3.6097471316       -0.7416458439        3.3231088945
 H         -4.1522694504       -1.2964947387        2.7067052140
 H         -2.7203778780       -1.1419955873        3.3099058267
 O          0.0420099450        4.7712997396       -3.6407203226
 H         -0.6395993966        4.9189783442       -4.3272251847
 H         -0.4576804967        4.7630863120       -2.7994148152
 O          3.1640670329       -4.3950254175        2.0455246019
 H          4.0527703618       -3.9910370814        1.9424169022
 H          3.2462243998       -5.2965911394        1.7010858112
 O        -10.4724704599        1.0847169001        0.6032926525
 H         -9.4866991707        1.1448215361        0.5547927316
 H        -10.6326601517        0.5783667681        1.4117878006
 O          6.8275389013        5.2825784457       -2.3016717344
 H          6.8360662068        6.2394865681       -2.3098691603
 H          6.2518766999        5.0151383883       -3.0675926569
 O          9.0084795257       -2.9300872745        1.5779944301
 H          8.7370081247       -3.3787026728        2.3862438280
 H          8.9346028095       -1.9726129071        1.7680313875
 O          7.5111817099       -3.2543338895        3.9925914845
 H          7.0256124987       -3.2727484437        4.8229745246
 H          6.8123492007       -3.3590323120        3.3064038675
 O         -8.7118914492        2.6311699660        2.8658999141
 H         -9.4253905470        2.4464814544        3.4750954893
 H         -8.0184738165        3.0907272763        3.3595206883
 O          5.7444085687       -0.4960624103        3.5276581040
 H          5.4573259073       -1.2103874095        4.1214009530
 H          6.6716432140       -0.3553857417        3.7968760122
 O          5.3208531359       -2.3408595984        5.5089118307
 H          4.9880234087       -1.8485903354        6.2599486236
 H          4.6386212510       -2.9930944595        5.2655866623
 O         -8.6809637058       -0.8613870635        4.6998943474
 H         -8.1426544884       -1.6163113142        4.4212075307
 H         -8.0563510796       -0.1393692428        4.8770706321
 O         -3.0553601086        5.6337667659        3.5919897494
 H         -3.4359245711        4.8633735498        4.0657498420
 H         -2.0940460136        5.5425869341        3.7223004750
 O         -8.4061743336       -4.4880228696        2.1301864855
 H         -8.4561863422       -3.5563267162        1.8160116125
 H         -8.3487578400       -4.4270968958        3.0857843259
 O          5.2633606171       -1.9366185446       -5.7901612353
 H          4.6096039219       -2.6065979003       -5.4752562354
 H          5.5963488598       -2.2701132791       -6.6238820152
 O          8.4649687234        3.1132317557       -2.1496453227
 H          8.0675089099        3.9846430315       -2.3083108198
 H          8.7320454406        3.0933916918       -1.2063938970
 O         -4.6397572674       -5.1065722250        4.0264404420
 H         -5.0590293380       -5.1003691805        3.1514955050
 H         -4.7809660767       -4.2310494792        4.4242131215
 O         -6.8514961678        3.6443279963       -4.1061258098
 H         -6.6954199982        2.7019911998       -4.2992155898
 H         -7.4307335570        3.6016711399       -3.3263143618
 O          6.2189403659        4.8042307002        3.2208525622
 H          5.9689492079        5.3391819121        2.4419625854
 H          6.8200247375        4.1265044810        2.9038430438
 O         -3.9346959607        3.4194702220        4.8184512368
 H         -3.7690612045        2.8051637266        4.0646258540
 H         -3.3091593832        3.1365597236        5.5003403116
 O        -10.4356220490       -0.6514808371        2.7643404825
 H        -11.2026207517       -1.1256169094        3.0848391434
 H         -9.7935970484       -0.6260499586        3.5210208169
 O         -6.4557323275        3.7429762031        4.0363255184
 H         -6.4460960096        4.6960044583        3.7833194688
 H         -5.5970322000        3.6271590450        4.4880012366
 O         -3.9778564492       -6.3213580646       -1.4920854798
 H         -3.6276876415       -5.9351864679       -2.3385281319
 H         -4.9312992532       -6.3429290712       -1.5934265684
 O         -1.2353486846       -1.9414073613        3.4692614701
 H         -0.7963247551       -2.6383612820        2.9566886922
 H         -0.5406063194       -1.2611350309        3.6498056784
 O         10.3489509812        0.3150630993       -0.3525114466
 H         10.8276370715       -0.5173480775       -0.4398301245
 H          9.4851569746        0.1463900696       -0.8282324371
 O          6.4114779403       -2.4881284455       -3.2590998234
 H          6.2027796660       -2.1994853771       -4.1573895080
 H          7.3801346634       -2.6060300032       -3.1983284810
 O          6.6076418167        0.4687026297       -5.2216473967
 H          6.1642929729       -0.3633664521       -5.4268686866
 H          5.9334618742        1.1611874379       -5.3790590804
 O          4.0841748038        6.0737734167       -1.3094265413
 H          4.3982595756        5.1857674888       -1.5507823976
 H          4.4890312777        6.2672205016       -0.4434289560
 O         10.5743735362       -2.5130810079       -0.6520701396
 H         10.0610078198       -2.7686418731        0.1352253350
 H         11.3332584463       -3.0952774900       -0.6856322445
 O          5.3645957420        2.5219368817        5.4495172887
 H          5.2905186591        3.4585818252        5.6348691815
 H          6.3325524592        2.3169491830        5.4632340268
 O         -8.8331631773       -5.1296488953       -0.5975125429
 H         -9.2854319420       -4.3239618550       -0.8881484886
 H         -8.8763445670       -5.1379141634        0.3670017019
 O          8.0648590120       -0.3037194609       -1.3571497501
 H          7.8136601129       -1.2167299506       -1.1203654416
 H          8.2377899784       -0.3037425519       -2.3225274597
 O          3.2746023368       -3.8394041251        4.6530055402
 H          3.2096446618       -4.2401726069        3.7609375124
 H          2.4054413109       -3.9018581855        5.0727802728
 O         -0.3902606428        5.1366154142        3.7365791940
 H          0.1647613447        4.7241717977        3.0415062039
 H         -0.0448719332        4.7756158646        4.5697165633
 O         -4.1507658108        0.5885713985        5.6890633888
 H         -3.5066435506        0.3638733559        6.3632744815
 H         -3.8584007510        0.1607226356        4.8707538219
 O          7.9823671370       -5.2165891510       -1.9875414620
 H          7.1945225799       -5.3479891124       -2.5644456905
 H          8.6564537445       -4.8309870726       -2.5558674138
 O          2.9602511555        7.1328213454        3.1301008713
 H          2.0098856893        7.2345023899        2.8575273751
 H          3.2200256828        7.9739425397        3.5035279031
 O         -9.3345838186        3.7181177670        0.4009225584
 H        -10.1326424021        3.1971284999        0.2696191176
 H         -9.0108584799        3.4477850636        1.2779571241
 O          6.6879574297        4.1961427372        0.1871424001
 H          6.5680945904        4.5947314736       -0.6934764282
 H          7.5926958939        4.3801176484        0.4439126663
 O         -4.0992699859        3.2088908883       -4.7704029602
 H         -4.9744212902        3.5699138093       -4.5830681337
 H         -3.9566759641        2.4863462599       -4.1325736188
 O         -7.8267933488        1.0811275640        0.5563404960
 H         -7.4117353711        1.9229407619        0.8170942288
 H         -7.5395544193        0.4597495573        1.2541851587
 O          9.1261139521       -2.8374877997       -3.0593474754
 H          9.5980915526       -2.6962502927       -2.2214938726
 H          9.2509978808       -2.0139906569       -3.5595638752
 O         -6.9152295938       -2.5888479364       -5.3909894004
 H         -7.2324172156       -2.9416889800       -6.2209913130
 H         -5.9588323186       -2.3689444623       -5.5146077535
 O          3.2892429589       -6.9599461827        0.9578327083
 H          2.3470940820       -6.8716250857        0.6712436797
 H          3.3643972655       -7.8053461656        1.3990844473
 O         -7.8492549195        2.8929954046       -1.6887092911
 H         -6.9222110173        2.8785434046       -1.3980658322
 H         -8.3698598539        3.2717038703       -0.9513264368
 O          5.3009712979        4.6631565800       -4.3345314987
 H          4.3827674413        4.8919143609       -4.1300225574
 H          5.2554862050        3.7297692887       -4.6068390395
 O          4.3747533937        3.3465728773       -1.7805301843
 H          5.0609046978        2.7549246782       -2.1343945270
 H          3.7283991711        3.4854608465       -2.4932475926
 O         -2.5494816491       -4.0090082282        1.7893040267
 H         -2.2922757820       -4.1511209275        2.7146379451
 H         -2.9083885850       -4.8770866428        1.4983906376
 O          6.2137768809        1.5536258176        0.2002965240
 H          6.8252207792        1.1440623422       -0.4216265430
 H          6.3645795829        2.5185207861        0.1613802699
 O         -4.5229759933        0.7001320569       -6.0008788971
 H         -5.1910505381        0.7476920392       -5.2836470136
 H         -4.5335924290        1.5679442970       -6.4124769545
 O          3.3560555971       -2.1908391840       -2.6129603706
 H          3.5774989910       -1.2660111919       -2.7972507042
 H          3.4547364954       -2.6914605962       -3.4375217562
 O          0.8966228182        3.8742149684        5.8086066788
 H          1.3337072732        3.1949958658        5.2493067632
 H          1.6015521983        4.4024119625        6.1822276775
 O          0.4184998120        7.3997704731        2.5280088777
 H          0.0384138586        6.7058972457        3.1012635892
 H          0.1430246566        7.1628041829        1.6296794885
 O         -1.4221342399       -0.0378741204        6.6635594258
 H         -1.4881982723        0.8993323544        6.3886512626
 H         -0.4788536076       -0.1973758020        6.7914957540
 O          1.2632417306       -0.7669015653        6.2975933819
 H          2.1866105357       -0.4721320734        6.2640847698
 H          1.2415362531       -1.7101393629        6.0573586111
 O         -1.9034933978       -2.6276365329        5.9541221049
 H         -1.8122085641       -1.7879461980        6.4332798085
 H         -1.7420879784       -2.3784802150        5.0148553835
 O        -11.0367810802       -0.2652087743       -1.5537541837
 H        -10.8643225997        0.2499000173       -0.7151807614
 H        -11.9490200396       -0.1082685909       -1.7931159825
 O         -6.4224688142        0.9508928653       -4.1265291430
 H         -7.3490772141        0.7063009736       -4.2185066613
 H         -6.2107528937        0.7799790328       -3.1847281308
 O         -2.6392698278       -0.8099686479       -0.6183262616
 H         -1.8368659437       -0.7147906221       -0.0714913004
 H         -3.3312421329       -0.3799680826       -0.1097399362
 O         -0.4635735864       -0.3657065620        0.9991258450
 H          0.1022336619       -0.9515379951        0.4748954761
 H         -0.0284540122        0.4921831682        0.9894858360
 O          1.5189136768        2.0078880050        7.8540090588
 H          1.4605503986        1.1463537200        7.4358819836
 H          1.1222948017        2.6383025719        7.2404421333
