  376
       -636.82064923
 H         -0.7892544103        0.1799046933       -0.2030541289
 O          3.6227507509        4.1286979977        0.9045375638
 H          4.1212584514        4.9166658183        1.1980466773
 H          4.2598872091        3.4405736883        0.6688376678
 O          0.1557071052        0.5605535886       -0.4075452614
 H          0.8706200878       -0.0910688628       -0.0953373338
 H          0.3192898958        1.4359943961        0.1137434306
 O          0.9261377158        2.3211679177       -2.6563862437
 H          0.2599688567        1.6459869296       -2.8703520129
 H          1.4917111711        1.9220257718       -1.9745912766
 O          1.9900565411       -1.0748468656        0.3111564665
 H          1.7090948008       -1.5947791495        1.1011795324
 H          2.8898208489       -0.7574448813        0.5270509062
 O          1.7280813930        4.4697609343       -0.8831078286
 H          2.5680894754        4.5552555343       -0.3811092239
 H          1.9492922786        4.1067315936       -1.7452620795
 O          0.8058068678        2.6426074857        0.8221484492
 H          1.1003087538        3.3225263409        0.1818047020
 H          1.6161683149        2.2249869477        1.2071079843
 O         -0.3747339563       -2.4643216039       -0.6126999917
 H         -0.9646360863       -2.8745574047       -1.2573567628
 H          0.3000737528       -1.9861699058       -1.1209668791
 O          2.7914317758        1.3959283477       -0.9004066442
 H          3.2682484176        0.6550986944       -1.3274280445
 H          3.0304075286        1.3908795315        0.0401304701
 O          2.3118852854        0.3168033813       -4.2998868563
 H          2.2352929951        1.2863226604       -4.2410289942
 H          2.1544446387       -0.0768770512       -3.4200315509
 O         -1.7206366601        1.5306935589       -5.2473729677
 H         -1.2805699802        2.3666467552       -5.0150082730
 H         -1.0022985735        0.9275373916       -5.5346105833
 O          0.6229749823        1.0396240114        4.7837597563
 H         -0.2825775239        0.7323426339        4.9325844415
 H          0.5438172404        1.9362027661        4.3935975504
 O          3.2967387304        5.5505993180       -3.5762334193
 H          3.4566279887        4.7084740703       -3.1013506207
 H          3.8845155611        5.5127109922       -4.3349815305
 O          2.7028942138       -0.4384779948        3.7485547345
 H          3.5623442868       -0.1180110372        4.0745788982
 H          2.1528594896       -0.6249458832        4.5321893309
 O          3.8431485703        5.8731727247        4.4501399324
 H          2.9700487055        6.2158390456        4.6881724435
 H          3.7010012539        4.9170972539        4.3298322900
 O          3.1228985920        3.3188179174        3.7880592000
 H          2.1730527537        3.5300331864        3.6923623965
 H          3.1604388012        2.7702810961        4.6083419829
 O          1.1964298075       -1.1229266189       -2.3663245710
 H          0.4273824617       -0.5286875132       -2.4353513884
 H          1.1034228361       -1.7770727077       -3.0865274476
 O          6.0548956792        4.4908099812       -1.0583589078
 H          5.2597807840        4.0395681382       -1.4159277464
 H          6.7986315640        4.0066857431       -1.4242412175
 O          3.9255566309        3.3284113654       -2.2293573259
 H          3.5147402937        2.6627972274       -1.6262878372
 H          4.3577702703        2.7898586460       -2.9215945912
 O         -3.8050569164       -7.0601911653       -1.3108109186
 H         -3.9040502251       -6.4774442005       -2.0787000631
 H         -2.8555533045       -7.2586485602       -1.2990821217
 O          5.1897040863        1.6311407283       -3.8467958600
 H          5.9186499909        1.6709138483       -3.1806498509
 H          4.6837305553        0.8349438385       -3.6351850540
 O          1.0998718095        5.9857379064        4.5606292536
 H          1.1680937471        5.7200341672        3.6199618578
 H          0.3075981794        6.5340830760        4.6031366829
 O          2.2562634097        2.8596849031       -5.1899287281
 H          3.0685373142        3.3892557678       -5.1863927806
 H          2.2623157420        2.3728688180       -6.0479724966
 O         -2.7687786338        2.1337031546       -1.4359810311
 H         -3.3471961309        2.5493402083       -0.7785525334
 H         -1.9915569267        2.7497622218       -1.4647882808
 O         -0.5576262767       -3.8578225646        3.6973116732
 H         -0.8496069340       -3.1750032979        3.0511230973
 H         -1.0757290094       -3.6976644417        4.5108774186
 O         -3.5604013815        0.9886565366       -7.1348323058
 H         -4.3786184048        1.2930047183       -6.7222241826
 H         -2.8436881449        1.3301796679       -6.5651094189
 O          1.8849347913       -2.6112614439        2.3950517065
 H          2.1612483878       -1.9118392697        3.0145293387
 H          2.6919372163       -3.0984753206        2.1508181969
 O          2.2695779594        1.3349197461       -7.3573463118
 H          1.4681942483        0.8323460259       -7.1200406207
 H          3.0098017522        0.7303132277       -7.2278314317
 O          4.1190577908       -0.4747401769       -2.2418149846
 H          3.7185481359       -1.3207326108       -2.0170685795
 H          5.0856950397       -0.5761473799       -2.1159245549
 O          0.2895602337       -0.0303466946       -6.0501237030
 H          0.1077476474       -0.9308972358       -6.3757899249
 H          0.9737293414       -0.0791717420       -5.3513285794
 O          1.2388118002       -1.5477663963        5.7574545559
 H          1.0624261663       -0.9169822470        6.4827965480
 H          0.3956825880       -1.5848471216        5.2660685313
 O          1.7071680984       -5.3168267791       -3.9401940230
 H          1.6705362252       -5.3558298043       -2.9725332832
 H          1.0086175447       -5.9267023205       -4.2295453531
 O         -5.1965753435       -5.2185037434        0.1592175316
 H         -5.6838837647       -4.8239306159       -0.5700922964
 H         -4.6844006925       -5.9561812453       -0.2314360188
 O         -1.2762768003       -1.2019194167        4.7911469655
 H         -1.7205734399       -0.9522788562        5.6102809993
 H         -1.8819816661       -0.9753802871        4.0703660248
 O         -1.6626011902        7.8138172603        1.5398258454
 H         -1.5113691095        7.5744859986        2.4720020382
 H         -0.8209815847        8.1383019956        1.2149837994
 O          5.2465579019       -1.7377175842        3.2675920282
 H          5.4933919374       -0.9736254329        3.8057245607
 H          4.5936187903       -2.2401152462        3.8120159588
 O         -1.4832449209        6.9891181314        4.1603627567
 H         -2.0533651913        7.4201159120        4.7962730109
 H         -1.7090582571        6.0300172223        4.1744603171
 O         -3.6470536958       -3.0952343884        0.7111236212
 H         -2.8199676823       -3.3808861083        0.2857121434
 H         -4.2514658167       -3.8588704946        0.5897118982
 O          3.8776641237       -4.0070008105        1.2054957293
 H          4.8245611329       -3.9717651440        1.4143178208
 H          3.7620280098       -3.7076270436        0.2829611907
 O         -5.4478824343        2.1668900314       -5.3574646716
 H         -6.0718190566        2.7355514419       -5.8071352510
 H         -4.8847238050        2.7438677171       -4.7959739022
 O         -0.9592099084        0.4074950624       -2.8506491451
 H         -1.7159456883        0.7941183784       -2.3999186316
 H         -1.2996405898       -0.2804691170       -3.4593330678
 O         -5.0832465457        0.5976887068       -1.6421691935
 H         -4.4260954292        0.5324615901       -2.3609974975
 H         -5.2967680100        1.5476996641       -1.5207527056
 O          6.8546083932        1.7905199949       -1.7958519451
 H          6.3180100742        1.8392787371       -0.9742514740
 H          7.1760822580        0.8813781056       -1.8378321522
 O          1.0692224049       -4.8249684849       -1.3361027908
 H          0.2424052748       -4.5739223081       -1.8045807052
 H          0.8388392035       -4.7122932140       -0.3806334252
 O          0.5411999621       -4.6111393012        1.2182879357
 H          0.7477574652       -3.7685397983        1.6535276865
 H          1.1789170521       -5.2628723915        1.5719246304
 O         -1.6428703370       -1.6728548532       -4.3236888581
 H         -2.0862571565       -1.6029405465       -5.1927742557
 H         -0.8012427172       -2.1364764175       -4.4606090312
 O         -0.1921480863        3.7720776434       -4.9958432915
 H         -0.2927986907        4.0597655175       -5.9042879155
 H          0.7135898259        3.3732185209       -4.9356512458
 O          1.1968957255        3.8573792650        6.3942592771
 H          1.1874101545        4.6209671951        5.7937244749
 H          0.2761688592        3.5885610979        6.5083071599
 O          0.6203451537        6.1278363113       -3.8796825279
 H          0.3199346740        5.2530277278       -4.1888864558
 H          1.5893511524        6.0573515597       -3.8339481536
 O          1.3489616240        5.4577055714        1.9094348578
 H          2.0810421154        4.8508227299        1.7313142107
 H          1.6005586356        6.3036417172        1.4662257221
 O         -1.0378829554       -6.9465223924       -1.4986046583
 H         -1.2744779414       -6.0633466988       -1.1320266553
 H         -0.4729341679       -7.3375085701       -0.8136012107
 O          4.0116591163        6.4927164829       -1.0235468827
 H          3.7579782508        6.3762947773       -1.9501421718
 H          4.8587181953        6.0456299800       -0.9141576526
 O         -3.4230772962        5.6111323630        2.0986990701
 H         -3.4053750192        6.5691643142        2.0743715883
 H         -2.5152052920        5.3329981662        1.8436940142
 O          4.6234052380        6.3785821489        1.9919493073
 H          4.2411540731        7.2018371012        1.6852129353
 H          4.3723755030        6.2801169106        2.9454810925
 O          2.9795736781       -2.9956592644       -1.2195222192
 H          2.5376913910       -2.2448053763       -0.7592352539
 H          2.2666978267       -3.6658108090       -1.3066243103
 O         -1.9023310884        4.3671124281        4.3648401042
 H         -1.8075408053        4.0460322189        5.2743565022
 H         -2.6640581950        3.8871980825        3.9848629752
 O          2.5523681383       -6.1620932939        2.0907787112
 H          2.3935025897       -5.9964072335        3.0352814866
 H          3.1518048450       -5.4391915762        1.8124438731
 O         -1.4276303302        2.8401073523        6.5982374270
 H         -1.8874996507        2.4961878414        7.3634657289
 H         -1.6381276668        2.2289624432        5.8478211131
 O          4.0504679741       -0.5677159173       -6.0829350406
 H          3.4842253323       -0.1989364816       -5.3677492839
 H          4.8410821865       -0.9079990565       -5.6380657230
 O         -7.2529160507       -0.0681843797       -2.9882297590
 H         -6.4539048661        0.1876402066       -2.4573246250
 H         -7.5728756423        0.7296254571       -3.4084291858
 O         -0.5554771431       -6.8369814382       -4.1381859296
 H         -0.7440846189       -6.8297358557       -3.1688434444
 H         -0.6680393129       -7.7435854466       -4.4216184474
 O         -1.1371864887       -4.1231522374       -2.6778331312
 H         -2.0333726228       -4.4775913700       -2.5507445081
 H         -1.0226334357       -4.0794048798       -3.6402780824
 O          0.4542068431        3.3340737919        3.4730719337
 H          0.3744254997        3.1259905810        2.5278825686
 H         -0.3592699577        3.7981163452        3.7386246445
 O         -5.5203396723       -1.3737245749        0.1373104515
 H         -5.2340789322       -0.5984711372       -0.3792741975
 H         -4.7035321828       -1.8606377817        0.3894618955
 O         -2.2080471758       -0.1986338198       -0.0816268960
 H         -2.6941768557        0.5630199410       -0.4341930508
 H         -2.4053369532       -0.9531362593       -0.6725122435
 O         -3.0174019542       -6.1820720904        5.0682559692
 H         -2.3298862201       -6.3452001408        4.4059501413
 H         -3.8484226753       -6.1123859249        4.5865826925
 O         -1.6169684327        2.1380302682        1.8858513452
 H         -2.3899351096        1.8204043355        1.4084897096
 H         -1.4514342472        3.0569354035        1.5926467842
 O          0.9286358697       -2.7792319359       -4.4233727338
 H          1.0811917410       -3.7208854649       -4.2138443436
 H          1.5062747329       -2.6052955812       -5.1878298616
 O          3.8976151333       -3.6262532714       -3.6830392400
 H          3.2385337814       -4.2529238955       -4.0096772692
 H          3.5419284631       -3.2832137444       -2.8378258998
 O          2.0488772795        7.5753400746        0.5025130644
 H          1.3382397582        7.5281393773       -0.1587964090
 H          2.8365735875        7.2698651671        0.0156198253
 O          0.2228008335        6.6297997568       -1.2808398730
 H          0.3346970394        6.6634858461       -2.2506371928
 H          0.6904724619        5.8034600384       -1.0305374407
 O          6.4957286167       -3.7238880812        2.0586685144
 H          6.1761056021       -2.9556398626        2.5844796791
 H          6.9434645398       -4.3125743364        2.6648824558
 O          5.0685073451        0.6667966181        4.5811185733
 H          4.6464548551        1.0919714775        5.3387974592
 H          5.4355644694        1.3787261466        4.0292653261
 O          0.2480957616        0.1635166455        2.2487526749
 H         -0.4392594362        0.8378298639        2.1206119569
 H          0.5493498425        0.2692339179        3.1649522804
 O         -3.2028220099       -0.5031909187        2.6875191802
 H         -2.6156540000       -1.0944807639        2.1775016184
 H         -4.0355063093       -0.9771917631        2.8683839317
 O         -2.3947677211        6.5605213228       -0.8734995161
 H         -2.5109823879        7.1099192510       -0.0888018394
 H         -1.4137930765        6.5407894758       -0.9819552396
 O          5.8877403866       -2.0750833821       -4.6098853251
 H          5.1507814269       -2.6289812992       -4.2768055583
 H          6.4987344788       -2.6638675579       -5.0523998481
 O         -3.8624219875        4.3435605201       -0.2287342812
 H         -3.9619721594        4.6688517820        0.6794927737
 H         -3.3331589099        5.0443140108       -0.6537602578
 O         -1.2684177504       -4.4505856314       -5.3948732833
 H         -2.2246646040       -4.3203840353       -5.4839743434
 H         -1.1212860915       -5.3841289655       -5.1835625909
 O         -4.2311544385       -2.2624779476        5.3623447376
 H         -3.8871140195       -2.6655112579        4.5146145048
 H         -5.1251325891       -2.5924923142        5.4509739962
 O         -2.8777509998       -6.8895340864        1.5424604112
 H         -2.1446437492       -6.8818677668        2.1810292007
 H         -2.8853502552       -7.7357272309        1.0939416602
 O          3.2289642261       -6.4662755011       -0.7639773152
 H          2.3962790547       -6.0092127316       -0.9542352964
 H          3.2168896645       -6.6712296350        0.1740522201
 O         -6.2841249119        1.4777384642        3.4672122402
 H         -5.6090033204        2.1762208575        3.5275397534
 H         -6.7228881464        1.6267823262        2.6176310332
 O         -0.8296817061       -6.3781652890        3.2388669115
 H         -0.7728698677       -5.3710917567        3.3105778329
 H         -0.1857179251       -6.7060252397        3.8701560347
 O         -1.8333226550       -4.8922169492       -0.0003564436
 H         -1.0365181681       -4.6956295468        0.5231146135
 H         -2.3480809193       -5.5297398198        0.5231035483
 O         -2.7895010631       -1.5304821955       -6.7490823234
 H         -3.1419930223       -0.6407747594       -6.9818351305
 H         -2.0247403993       -1.6911744125       -7.3117440774
 O         -5.8268572729        3.1735513843       -1.5686059170
 H         -5.4918565787        3.3970927333       -2.4497201173
 H         -5.2300130373        3.6709609873       -0.9705542936
 O         -5.4693832240       -3.1955450261       -1.8729431647
 H         -5.6435458391       -2.7181470576       -2.7094138568
 H         -5.6683594676       -2.5698655890       -1.1479976187
 O         -0.1922956158       -2.5106784735       -7.0957872175
 H          0.7410309402       -2.6880306332       -7.2660290221
 H         -0.5096752259       -3.2371567024       -6.5315443448
 O         -3.8139079156        0.3764458620       -3.9924106121
 H         -2.9728041366        0.7144924248       -4.3611871759
 H         -4.4961079404        0.8421948193       -4.4898344721
 O          4.5911829996       -0.8149173491        0.8093405620
 H          4.7613979360       -1.0707417810        1.7378724754
 H          5.0642401063       -1.4752052694        0.2718971915
 O          1.7312654294       -5.0253936732        4.4104385519
 H          1.0448600634       -4.4606492618        3.9951683933
 H          1.4969578896       -4.9605208231        5.3613648279
 O          2.5501373483       -2.6600542435       -6.6000985135
 H          3.1264567865       -1.8583674630       -6.4948795680
 H          3.1358356710       -3.4062949804       -6.7217238106
 O          0.2432334139       -7.5214092198        0.8788186704
 H          1.1865485583       -7.5567378855        1.0533054597
 H         -0.1410921145       -7.0639311361        1.6445442622
 O         -3.3550766001       -3.5703428520        3.3178889203
 H         -3.3256209609       -3.2288215295        2.4048780227
 H         -3.9406965841       -4.3462266647        3.2808492934
 O          5.3219475168       -4.9800324596       -1.7071323743
 H          4.6547050167       -5.5802437794       -1.3236487733
 H          4.9526298363       -4.6819764208       -2.5504352733
 O          2.8814770681        1.4490831368        1.8467767202
 H          3.1523078722        2.1524648539        2.4648242559
 H          2.6345691953        0.6898789985        2.4058635191
 O          0.7462588746       -4.1402866808        6.7093310555
 H         -0.2197490274       -4.1441459025        6.6545096020
 H          1.0026358851       -3.2182889582        6.5421637579
 O          0.3143932821        0.2892136681        7.5250568955
 H          0.4739885317        1.2122541763        7.3107689792
 H         -0.6423908935        0.1554812046        7.4850807953
 O         -2.9138173648       -1.9650451351       -1.9213376519
 H         -3.7300786231       -2.4783761727       -1.9300929437
 H         -2.5437471539       -1.9582643896       -2.8179382007
 O          5.3063149823        1.7922540217        0.4150923672
 H          5.6034868233        2.0728035133        1.3023167537
 H          5.0517723841        0.8576038710        0.5282812793
 O         -2.2351865085        5.5982218435       -3.3860628007
 H         -1.5375365952        6.0865446473       -3.8325425213
 H         -2.5139307780        6.1383672751       -2.6284731645
 O          4.7975632903        3.8763226118       -5.3651687578
 H          5.2054110718        3.8626827010       -6.2307152392
 H          5.0866015965        3.0645111189       -4.9095399105
 O         -3.9421591578        3.4393716906       -3.5571910831
 H         -3.4710239016        2.8636888767       -2.9199873132
 H         -3.3840354666        4.2225981720       -3.6642604634
 O         -0.9013840871        3.9152394119       -1.6263171508
 H         -1.2647224664        4.4875424920       -2.3219970901
 H         -0.1459751946        3.4208818071       -2.0241055344
 O         -3.7127633644       -4.9265610568       -3.0401453372
 H         -3.8223106104       -4.6726007756       -3.9675712923
 H         -4.3608313455       -4.3997923364       -2.5455152780
 O         -1.1498574616       -2.0318898296        1.8756951991
 H         -0.5702078123       -1.2695551620        2.1000433139
 H         -0.9309182037       -2.2408326301        0.9495405855
 O         -2.4582346392       -0.1369960244        7.1656275169
 H         -2.7981856591       -0.8860753851        7.6565943798
 H         -3.2008845592        0.2071712183        6.6381360878
 O         -8.0649177439       -0.4122452337       -0.3153788209
 H         -8.0561768113       -0.3833346975       -1.2836739188
 H         -7.3679205860       -1.0329291449       -0.0654533094
 O         -5.7696178076       -1.2253981809        2.9444079019
 H         -5.9379234427       -1.3294160656        1.9976501250
 H         -6.0870824914       -0.3387778483        3.1802685341
 O         -4.1292051985        1.4753928015        1.1572497707
 H         -3.8876573099        0.6722306034        1.6796737651
 H         -5.0886969890        1.4466085634        0.9886318586
 O         -4.9166414645       -5.7560444140        2.9322424853
 H         -4.2729492235       -6.2491391585        2.3902906087
 H         -5.5941251069       -5.4869035564        2.3053444498
 O         -4.1487629525        3.2346356898        3.2056317598
 H         -4.2278652168        4.1361202543        2.8698259694
 H         -4.0346290850        2.6542373134        2.4192914109
 O         -4.4119330687        0.4010585363        5.3600263307
 H         -4.4150478323       -0.5719604390        5.2259220649
 H         -5.2012346180        0.7431799831        4.9287244548
 O         -6.8024672061        1.7039836098        0.7249565964
 H         -6.8274359291        2.3719587197        0.0330917169
 H         -7.3472455923        0.9527919263        0.3965989860
 O         -1.1028703435        4.6495296359        1.0880024627
 H         -0.2356248999        4.9876357001        1.3907510362
 H         -1.0300070562        4.5180311637        0.1285739929
 O          6.0386309298       -2.7750117425       -0.4563773924
 H          6.5294127494       -3.0813068079        0.3169754229
 H          5.7630107942       -3.5978515325       -0.9317031532
 O         -2.0655528070        1.4364968556        4.4821673869
 H         -2.9660432874        1.0882944692        4.5938906543
 H         -1.9753135265        1.7049636527        3.5498984366
 O          6.8113706596        4.7665842187        1.5988237228
 H          6.2732871635        5.5304597419        1.8517989657
 H          6.6362050209        4.6374846381        0.6512902578
 O          5.7067679759        2.7592743202        2.9007327686
 H          6.2842888223        3.4843369369        2.5658394326
 H          4.8767910523        3.1910465708        3.1481100544
 O          6.7521750533       -0.9310590225       -2.2284429398
 H          6.6936483563       -1.6625430876       -1.5828447285
 H          6.6645964974       -1.3201744619       -3.1124474374
 O          2.9279595653        1.8469080271        5.9683770204
 H          2.5141145483        2.5995849292        6.4259056818
 H          2.1664011878        1.3277837587        5.6483401485
 O         -3.9742389335       -3.6540368407       -5.5204815959
 H         -4.6866455395       -3.1588374244       -5.0881259957
 H         -3.6067889285       -2.9993191951       -6.1393919871
 O          3.5337221633       -3.0463473518        4.8009781845
 H          3.0144843070       -3.8476932616        4.5919718966
 H          2.9367794293       -2.4966098184        5.3223041459
 O         -1.9677169888       -3.8743563175        6.0388109024
 H         -2.6739877252       -3.2204293687        5.9527136932
 H         -2.3798383193       -4.7355160797        5.8299647708
 O         -5.4768595437       -1.7921990015       -4.1399689757
 H         -4.7352672511       -1.1585867849       -4.1048577630
 H         -6.2784982708       -1.2651832452       -3.9895841271
