  311
       -524.06252888
 H         -1.2401138895        0.2773386707       -0.2065973571
 C         -0.6526450439        0.6602854416        0.6295096859
 H         -0.4945064996       -0.1329049903        1.3586860460
 C         -1.3871353576        1.8126062389        1.3242950873
 H         -1.6107939276        2.5931616603        0.5998995867
 H         -0.7302162705        2.2174173133        2.0948552248
 N         -2.6158745510        1.4094178541        1.9813920572
 H         -3.3293238235        1.1171252877        1.3203165901
 H         -2.4285207784        0.6380390619        2.6120329550
 O          0.6371914626        1.0549266558        0.1881642089
 H          0.5704908161        1.4603734320       -0.7108811180
 O          0.3646355040       -2.6218249042        1.5169209518
 H          0.1916348380       -3.3644696400        2.1310018136
 H          1.2953717543       -2.3890143426        1.6956102763
 O          4.5665316808       -0.8082410433        5.9117568294
 H          4.3277477184       -1.6459637474        5.4694290142
 H          3.7529652834       -0.5804286476        6.3992078018
 O          0.7940734753        4.2045722501       -0.5109236154
 H          0.1640998075        4.4319908107        0.1878112265
 H          0.4079515104        4.5429953354       -1.3502744464
 O         -2.7960512714        5.0398501836        0.1367829750
 H         -2.5727603758        4.2940163661       -0.4609016744
 H         -3.6806761042        4.8811638926        0.4959897289
 O          3.5781185305        0.6881313484        1.0432918588
 H          3.4262964900       -0.0856656414        0.4793920236
 H          3.4458691779        1.4471378766        0.4417807509
 O         -0.6642196058        1.7438904259        4.8582859046
 H          0.2583889520        1.8116064679        5.1312443027
 H         -0.7032704108        0.9436093479        4.2675911414
 O          1.9648358137       -0.3736268354        6.4898921551
 H          1.9018497429        0.4662463244        6.0172131986
 H          1.6282449737       -1.0648624541        5.9059953496
 O          5.9282379584        0.3639134421        2.2840269667
 H          5.1025573709        0.4601480008        1.7601946654
 H          5.9542617163       -0.5368499574        2.6434007503
 O         -0.7096953438       -0.5441123366        3.5823907362
 H          0.2426802758       -0.6134419689        3.4076544547
 H         -0.9290953563       -1.1564592273        4.3081185529
 O         -2.3247045924       -1.9372937733       -3.2512118585
 H         -1.8003318612       -1.1291072373       -3.4312624377
 H         -1.9148972477       -2.6522867320       -3.7746225062
 O          4.5501163212       -5.8046945093       -2.1343893120
 H          5.4499899398       -5.4607841692       -2.2234121580
 H          4.3736459960       -5.8460049238       -1.1737124503
 O          2.1224611770       -1.1076201907       -0.4193797289
 H          1.8681757087       -1.0386602630       -1.3551068570
 H          1.5409955625       -0.4599761427        0.0145135611
 O          5.3630120754        0.8585317170       -1.0363943179
 H          5.4393149137        1.2209703437       -1.9399766040
 H          6.1094676543        0.2598673293       -0.8928091736
 O         -2.7643590637       -4.3668462338       -1.3897321324
 H         -2.0131604690       -3.7494621648       -1.3184528361
 H         -2.9066349200       -4.5442290140       -2.3324033298
 O         -5.1829855291        1.0100271607        0.7651907439
 H         -5.3697640790        0.0521175021        0.7365075377
 H         -5.4551143987        1.3526880157       -0.1027437072
 O         -3.6280342238        4.7979807613       -3.0511520480
 H         -3.2493861753        5.6589699568       -3.2416547582
 H         -3.7839321468        4.3271378215       -3.8878495772
 O         -4.5884686648       -1.0740155787       -4.3560836058
 H         -3.7454883687       -1.3492651598       -3.9246729422
 H         -5.1887578482       -1.8009711102       -4.1431583134
 O          0.4704190985       -0.8963696124       -2.5693760559
 H          0.3688731125        0.0666648314       -2.5383074952
 H          0.4069465214       -1.1453677837       -3.5111018772
 O         -0.1554301726        5.2639010374       -2.7712239687
 H         -0.6678796171        4.7531984179       -3.4189493902
 H         -0.7544105886        5.9633029923       -2.4189289233
 O          0.3595747558        1.9344886231       -2.3140087016
 H         -0.4546891156        2.4556610606       -2.1820763095
 H          1.0295256358        2.5516840529       -2.6590182378
 O          2.9763419491        2.5351151106       -0.7828405496
 H          3.6062861137        3.1997232055       -1.1088785516
 H          2.1429414044        3.0160633680       -0.6592211749
 O          5.7864060577        2.1060707833       -3.4076578175
 H          6.6034722859        1.5784633112       -3.5346291880
 H          6.0780380074        2.9491497861       -3.0198903473
 O         -3.1725992442       -1.2381269055       -0.8220873110
 H         -2.9412062541       -1.7491670024       -1.6194594894
 H         -4.0915261985       -1.4652540389       -0.5484696728
 O         -2.2546375071       -2.1686649622        1.4732202634
 H         -1.2861874678       -2.1168361319        1.5409903630
 H         -2.5076908819       -1.8572058644        0.5794655168
 O          6.9534746038       -4.3479801495       -2.0865938696
 H          6.8898945262       -3.4502373897       -2.4916498650
 H          7.8676188025       -4.6171785982       -2.1756863252
 O         -7.4031014689       -1.8755607344       -1.7151961528
 H         -7.8670131621       -2.6666631193       -1.3245473349
 H         -6.8935590636       -2.2218001086       -2.4585014652
 O         -3.6756921220        3.4209220878        3.2452661705
 H         -2.9185254274        3.8738335817        3.6368565824
 H         -3.2795716247        2.6343043200        2.7368420745
 O         -2.7531081272       -4.5331752355        2.5582829738
 H         -2.5631110065       -5.2144363238        1.8623273985
 H         -2.5587829623       -3.6708112772        2.1251567400
 O          6.1900548292       -1.9498152243        3.7616313426
 H          5.4903426047       -2.5998024628        3.9157485430
 H          6.2879767717       -1.4834823028        4.5977900277
 O          3.7578186834       -3.1076706397        4.6290064938
 H          2.9536535677       -3.2292491313        5.1466501959
 H          3.4190744515       -2.8773245378        3.7340131250
 O          1.5894231765        2.8616080279        2.0256045298
 H          1.3053550916        2.2146435021        1.3516177391
 H          1.1227764757        3.6819722677        1.8518593810
 O         -5.3021936111       -3.7337184245        1.8602560947
 H         -5.8226798137       -3.5593726274        2.6727264714
 H         -4.4522543308       -4.1065454008        2.1549396310
 O          4.4209230008       -1.6472227683       -2.0318735567
 H          3.9415950402       -0.7981869128       -2.1968892117
 H          4.5344159789       -1.7085981850       -1.0565815368
 O         -3.4198261989       -4.9210309866       -4.0487600290
 H         -3.4592935596       -5.8437341338       -4.2986512728
 H         -2.6287936272       -4.5416368873       -4.4783215164
 O          4.9535292454       -1.8957671515        0.5571050317
 H          5.6898949473       -1.2677727227        0.5008680185
 H          5.3852235317       -2.7771070194        0.6138302355
 O          3.2548421460        5.7873535091        2.6499502059
 H          3.7005200825        4.9047465740        2.5728738806
 H          3.8894149784        6.3896910052        3.0365564831
 O         -6.8694789879        2.4620820981        2.2458143267
 H         -6.1800546106        1.9324487984        1.7761938719
 H         -6.6192533617        2.4444504003        3.1753810454
 O         -5.3346544454        1.7809493783        4.6289423541
 H         -4.7720011475        2.4324101012        4.1633698526
 H         -4.7212970072        1.3279519132        5.2314733301
 O         -5.5498085959       -1.5852538178        0.2360481500
 H         -6.2735960820       -1.7336938635       -0.4036692075
 H         -5.5431540378       -2.3336871815        0.8642029802
 O          0.5265447350       -4.6674940568       -2.7658107320
 H          0.1508611902       -4.0857952107       -2.0623370848
 H          1.3816134691       -4.2740897420       -3.0009199391
 O          0.1281796806        7.4320504169        0.2787767789
 H         -0.1107034345        6.7484884623        0.9208444493
 H          1.0481198264        7.2499491110        0.0348812146
 O          2.9004373428       -2.1916434016        2.3036806866
 H          3.6200350706       -2.0262036284        1.6694940968
 H          2.6302360098       -1.3285501836        2.6787598488
 O          2.6113550984        6.1229998825       -0.0133720952
 H          1.9718974573        5.3946772385       -0.1803637722
 H          2.8411282151        6.0655382611        0.9293980253
 O         -3.4621360261        1.0781044624       -2.0307565792
 H         -3.3450066724        0.2464915228       -1.5136742549
 H         -4.3978792460        1.3105822842       -1.9751151715
 O          5.8136094845        3.0745587370        0.3132129008
 H          5.1849722866        3.2097493569        1.0458126863
 H          5.5604393867        2.2169476605       -0.1139277973
 O         -5.7676462990        1.3677697259       -4.2937886992
 H         -5.3779640674        0.4710115262       -4.2963429143
 H         -5.9762389346        1.5615455962       -3.3604855756
 O          6.2239866329       -4.2335994296        0.5512187079
 H          6.4942491772       -4.3005241567       -0.3834334923
 H          5.4984546083       -4.8655679427        0.6853277572
 O         -1.5356550115        0.5338877606       -3.9112616303
 H         -2.1730907447        0.8860307539       -3.2714363120
 H         -1.9984517418        0.5292884048       -4.7690307511
 O          3.9169093885       -5.6196102079        0.5204548200
 H          3.3886726571       -6.2756857184        0.9769021904
 H          3.3096628999       -4.8566039278        0.3478121947
 O          2.0837070757        3.8706312597       -3.3271095993
 H          2.8249300021        4.2442416621       -2.8184427915
 H          1.3969621745        4.5525772345       -3.3384345431
 O          7.9523643758        0.5601697733       -3.2282690207
 H          7.6524266014       -0.3582828164       -3.1303189575
 H          8.4104785522        0.7923429656       -2.4081023964
 O         -1.0779158944       -3.8367623876       -4.7298162439
 H         -0.4923456845       -4.2730516909       -4.0742919909
 H         -0.5436534736       -3.0996517704       -5.0955520397
 O          0.5029921442        1.8007104218       -5.2935696450
 H          1.4638221604        1.7721513320       -5.2278167282
 H          0.1377535141        1.3108996392       -4.5358680301
 O         -0.1020164551       -4.6519046061        3.2071819598
 H         -1.0773953381       -4.7132560389        3.1700144196
 H          0.2348677760       -5.3259458232        2.6018569105
 O         -1.9704286845       -6.0612766956        0.5932243731
 H         -2.2563709466       -5.5606243007       -0.1913065273
 H         -0.9979379655       -6.0073245069        0.6162738762
 O         -3.0864787457        0.4805709425        5.6610478083
 H         -2.3170983716        1.0449756953        5.5098614183
 H         -3.2014013388       -0.0441955369        4.8468319302
 O         -6.4304895583       -2.9711387780        4.1657105506
 H         -6.3667601085       -2.0085727462        4.0058523710
 H         -5.6572962685       -3.1963189070        4.7073592898
 O          4.8000257045        1.4712886316        4.4647485314
 H          4.7878098123        0.7085068535        5.0788173810
 H          5.2985489875        1.1371029970        3.6893866475
 O          2.9820579247       -1.6903366389       -4.8307800951
 H          3.0248365674       -2.5130780669       -4.3220878361
 H          3.0010058394       -0.9744361934       -4.1852574699
 O         -8.2686485055       -4.0120215817       -0.5187716863
 H         -7.4514342710       -4.5231292507       -0.5629837697
 H         -8.3268818530       -3.6596034232        0.3885154198
 O         -1.2037683917        4.2280025716        4.2820317358
 H         -1.3719868272        4.6203647939        5.1395447504
 H         -1.0230380263        3.2608226504        4.4493474997
 O          0.9639660613       -2.7138649137        5.0276940668
 H          0.7245149269       -3.4195561738        4.4111410001
 H          0.1609068045       -2.5532004440        5.5430912002
 O         -8.2139828292       -2.6614154253        1.8484131382
 H         -8.3446741283       -1.7051047972        1.8371361364
 H         -7.8808698065       -2.8898641376        2.7216017065
 O         -0.6281442146        5.0515346716        1.6694098120
 H         -1.4879296467        5.1062693079        1.1944202403
 H         -0.8518915823        4.8346119924        2.5834369094
 O         -1.5622511733       -1.9235860992        5.8213908515
 H         -2.0057504721       -1.1400801933        6.1764382126
 H         -2.2800624996       -2.5594275418        5.6385609370
 O          1.8912344269        0.1346255583        3.0399559431
 H          2.3685809766        0.5077315224        2.2735521357
 H          1.9509232002        0.8251123003        3.7245420127
 O         -1.8130789367        6.9463838360       -1.5887015411
 H         -1.1506698430        7.3639121902       -1.0060581763
 H         -2.3202435452        6.3706131985       -0.9902268788
 O         -1.9747626488        3.1883445627       -1.6212256639
 H         -2.3161884530        3.7549417714       -2.3338724845
 H         -2.5321011423        2.3803918050       -1.6610700009
 O         -5.4327866611       -4.5605886338       -0.7077299289
 H         -4.4797998793       -4.6253235084       -0.8782573226
 H         -5.4896139233       -4.3461950075        0.2395208172
 O          1.6049552643        4.6072951757        4.5555255212
 H          2.0980559245        5.0888740800        3.8716752124
 H          0.6750826664        4.6233934017        4.2951871461
 O          6.6888616285       -1.9488869947       -3.2633982412
 H          5.8536429547       -1.7354784820       -2.7649072028
 H          6.4387950342       -1.9838463274       -4.1882592410
 O          0.3372598591       -1.6456123608       -5.1805339972
 H          0.0035834219       -1.0875347882       -5.9201060541
 H          1.3089210565       -1.6903921262       -5.2857572686
 O         -6.1491387173       -0.4340823340        3.2767061221
 H         -6.8595694800       -0.2462318996        2.6392995463
 H         -5.9908407741        0.3792137106        3.7965992993
 O          7.9762579716        2.0061372755        1.4319555838
 H          7.2643530363        2.5764373605        1.0711657683
 H          7.4797781994        1.2803059030        1.8441544868
 O         -5.8360120700        4.4234624747       -1.4058425631
 H         -5.6279378583        4.5871575882       -0.4728913577
 H         -5.0474180005        4.6586019172       -1.9222523617
 O          9.1396345308        1.1465687342       -0.7264126262
 H         10.0758055001        1.0647216016       -0.5490508554
 H          8.7311078759        1.5322012515        0.1040661152
 O          4.0987051046        4.7884174404       -1.7931554882
 H          3.7352098652        5.4414768377       -1.1605000866
 H          5.0361187276        4.9581417118       -1.9197371418
 O          6.8115829894        4.1854070412       -1.8856390701
 H          7.7651159572        4.1008956029       -1.8706793742
 H          6.4890971190        3.8334414539       -1.0258536231
 O          3.0871729630       -3.7185963390       -2.8996659125
 H          3.6454075893       -4.5180975642       -2.7890531046
 H          3.6205403742       -2.9582398973       -2.5537328864
 O          3.3766220827        2.0210569840       -4.7569439830
 H          2.9657861418        2.8214941716       -4.3813380878
 H          4.3199528935        2.0891562426       -4.5385067873
 O         -3.5778064775       -1.0499139872        3.4485399386
 H         -4.4866230002       -0.8441135290        3.1650345790
 H         -3.0879091407       -1.4077271396        2.6765594730
 O          2.9532955085        0.4555351118       -2.6486903613
 H          2.9733954693        1.1032226538       -1.9221607182
 H          3.1117923254        0.9829312125       -3.4588990943
 O          8.0397715914       -2.5342029275        1.7471699264
 H          7.5660789078       -2.2779886721        2.5517753978
 H          7.5736472331       -3.3185649605        1.4242153496
 O          1.6847330745       -6.8258657534       -1.5371098993
 H          2.5723834593       -6.8238093164       -1.9034973255
 H          1.1744532851       -6.1775219175       -2.0584308680
 O         -1.3878361790        3.6634210420       -4.5775353432
 H         -2.2111884038        3.3311488227       -4.9480582850
 H         -0.6755565187        3.0978044670       -4.9218271023
 O         -5.2154979338        4.4519403071        1.3173148931
 H         -6.0341092198        3.9632297888        1.5039885703
 H         -4.6345140868        4.1810427192        2.0612537881
 O         -0.5464842562        0.0113363037       -7.0563140997
 H         -1.5001245713        0.1277649910       -6.9631943913
 H         -0.1369776141        0.7847958771       -6.6261593072
 O         -4.1306709955        3.1143508984       -5.2448150368
 H         -4.7799622182        2.4745621380       -4.8161963340
 H         -4.6266328057        3.5722673286       -5.9235579846
 O         -5.6010176883       -3.3709585095       -3.1801312279
 H         -4.9391321378       -3.8925093981       -3.6545658876
 H         -5.6265627939       -3.7810928717       -2.2950482241
 O         -3.7289209680       -3.2890252426        4.8660460796
 H         -3.4063396255       -3.9553915035        4.2449785911
 H         -3.7176407598       -2.4408859091        4.3598753970
 O          4.1408712892        3.3323661776        2.4294173524
 H          4.4335215893        2.8378789200        3.2064602301
 H          3.2181678416        3.0291501056        2.2436539501
 O         -8.2423610399        0.2091105329        1.6098299146
 H         -8.2953127561        0.2541963311        0.6410538130
 H         -8.0649985892        1.1256529290        1.8891194935
 O         -3.1451072528        0.5495023510       -6.0888788371
 H         -3.5357624734        1.4259579774       -5.9681803662
 H         -3.7703199304       -0.0924541355       -5.7148789058
 O         -8.3806911108        0.5004656325       -1.1514348932
 H         -9.2558055647        0.5796497009       -1.5301030808
 H         -8.0367979408       -0.3856976665       -1.4150156646
 O         -0.4931967504       -2.9027616476       -1.0550491144
 H         -0.2386745437       -2.0998220631       -1.5509738717
 H         -0.1083077251       -2.8235784020       -0.1607049964
 O          2.2646415949       -3.7485671918       -0.2943389271
 H          2.2528306145       -2.7810129610       -0.1428414950
 H          2.4292901623       -3.8477018795       -1.2475122413
 O          7.3729556787       -0.9034498371       -0.2858331942
 H          7.7168633657       -1.4738012094        0.4334563033
 H          8.0831747788       -0.2705508419       -0.4718294079
 O         -6.0958297759        1.8529090679       -1.6601804270
 H         -6.1028224925        2.8445465927       -1.5699954791
 H         -6.9937140251        1.5220914204       -1.4769698143
 O          2.1777646606        2.0105846757        4.9614948011
 H          3.1461089584        1.9061547468        4.8897399244
 H          2.0116094237        2.9682321895        4.8227860244
 O          0.7632114285       -5.7610194017        0.7814629294
 H          1.0477260999       -6.3626018447        0.0705590266
 H          1.1029652598       -4.8925202857        0.4993691326
