  131
       -218.46465259
 H         -0.3780128196       -1.8929619640        0.2492572451
 C         -0.5756684359       -0.8883034469        0.6274874503
 H         -0.4197548817       -0.8696563284        1.7072894259
 C         -2.0153252784       -0.4928864154        0.3172603981
 H         -2.6761697160       -1.2237119201        0.7828350420
 H         -2.1859071482       -0.5067325476       -0.7605306015
 N         -2.3199135639        0.8541784372        0.8129690160
 H         -2.0452113980        0.9050930265        1.7982074172
 H         -1.6714503338        1.4873483313        0.3383219730
 O          0.3505844871        0.0362867990        0.0767054174
 H          0.2184570062        0.0286328940       -0.9089504313
 O         -0.0109187337       -0.2737095359       -2.4980271598
 H         -0.5723325250        0.4627871543       -2.8206139894
 H          0.8718623511       -0.1529505053       -2.9216682247
 O          5.8605284130       -1.9644348733       -1.7921553321
 H          5.6773841087       -2.4246675223       -0.9470220732
 H          5.0684136399       -2.0854445639       -2.3444415793
 O         -1.3188883047        1.9583597855       -3.0981225114
 H         -1.1131170070        2.3541486400       -2.2228055212
 H         -2.2848183590        1.9516140320       -3.1660002953
 O         -2.9330631451       -3.1174029752       -3.1911940431
 H         -3.2838244769       -2.2600712511       -2.8675878916
 H         -3.2430200156       -3.2167073361       -4.0912581247
 O         -0.4249949779       -2.9027011289       -2.0969671148
 H         -0.3142796692       -1.9436511046       -2.2500853602
 H         -1.2321046595       -3.1365878888       -2.5835649263
 O          6.3630241634        0.5451656195       -1.5173946317
 H          6.1602003840       -0.4385134815       -1.5978466794
 H          7.1586565201        0.6899773802       -2.0292799402
 O          2.1383216769       -3.4763275101       -1.3550540206
 H          2.2914884253       -2.7570764977       -0.7062656121
 H          1.2237817921       -3.3613993365       -1.6718684839
 O          0.3812616659        3.4566199958        3.2157005669
 H          0.2494463846        4.1889225184        2.5532215583
 H          0.7903046721        3.8588674793        3.9817099552
 O         -3.9373976941       -0.7821415940       -2.3500283711
 H         -3.9335905752        0.1340769228       -2.6635603012
 H         -4.6243468582       -0.8275809743       -1.6683555538
 O          3.6386176917        2.6017851251        0.4833145351
 H          2.9769475074        2.1449521614        1.0475882838
 H          4.5075550975        2.3331694058        0.8124535035
 O          1.3941314303       -5.0663865991        0.8597341003
 H          1.7939075290       -4.7244961790        0.0446321802
 H          0.4499373785       -5.1574285841        0.6518171877
 O         -0.7834161934        2.8964111066       -0.6439367984
 H          0.1328796908        3.2575714921       -0.6348309778
 H         -1.3546557440        3.6072573544       -0.3328984778
 O          2.5203878816        3.9253630906       -3.0329745105
 H          3.1773986036        3.2417461198       -2.8328408829
 H          1.9247276821        3.5105477443       -3.6906776764
 O         -4.0726152625        1.9561095939       -2.8334433625
 H         -4.1624288570        2.2075943897       -1.8816352476
 H         -4.7604213710        2.4167389252       -3.3130252315
 O          1.2662395633       -2.8987445490        2.4303669413
 H          1.3596769276       -3.8081894984        2.0715892379
 H          1.7225637023       -2.3488456824        1.7614637835
 O          4.5478276934       -0.8082148583        1.9712392097
 H          5.0841533070       -0.0428935267        1.7060470994
 H          4.0641218335       -0.5424781183        2.7839491977
 O         -4.7788084626        0.0133621071        1.9679851937
 H         -4.5426291990       -0.8276465975        2.3978001930
 H         -3.9404536004        0.3679876810        1.6246726351
 O          2.9351738855        0.1485483537        3.8797472403
 H          2.5193893165        0.7170161362        3.2053245935
 H          2.2024413380       -0.3690264564        4.2362165812
 O          0.1080823888        5.3131457884        1.3880763177
 H         -0.8016859481        5.1998968213        1.0742655595
 H          0.6922457676        5.0507073446        0.6524398365
 O          1.6859967766        1.5252068475        1.9017193216
 H          1.0795378484        1.0970573746        1.2729740038
 H          1.1954486381        2.2505354951        2.3355470187
 O         -3.0767890167        3.4644087064        2.9731311619
 H         -4.0138835052        3.1976773157        2.8391627086
 H         -2.5938024102        2.6759391269        3.2469806496
 O         -1.2578430031        1.2203413605        3.5018390157
 H         -0.6585393967        1.9833683054        3.4853617709
 H         -0.7229634983        0.4653836479        3.7899558365
 O          0.3732312607       -1.0571163882        4.2049593635
 H         -0.0196723700       -1.5363780205        4.9350899357
 H          0.7067324904       -1.7388580250        3.5874068659
 O          5.1717476300       -3.1167909418        0.5651771702
 H          5.0471736217       -2.3829175842        1.1884493104
 H          4.3518099637       -3.6155518332        0.5643998539
 O         -5.5074337586        2.6496401676        2.1751411499
 H         -5.2854310251        2.7030634711        1.2299944554
 H         -5.5151179939        1.7023898501        2.3723798189
 O         -1.1856372548       -4.5517217295        0.0060699182
 H         -2.0501759093       -4.8805078884       -0.3362647392
 H         -0.8767853530       -3.9410717926       -0.6835109915
 O          6.0371992208        1.3120880904        1.0278950006
 H          6.9000767057        1.4795931507        1.4068172190
 H          6.1814485129        1.0314108746        0.0954370867
 O          1.5694190169        4.1227479844       -0.5929239281
 H          1.8561503498        4.1870949627       -1.5412223508
 H          2.3299160942        3.7253244864       -0.1450135424
 O          0.9899605326        2.3633588248       -4.6310064548
 H          1.4591091045        1.5320834160       -4.4781793825
 H          0.1221502738        2.2714289768       -4.2102871942
 O          2.5073415747       -1.5256967324        0.4405936178
 H          3.2916731724       -1.1728591276        0.9147059844
 H          1.8876069883       -0.7907709287        0.2855766053
 O         -3.5381510798       -4.9630413845       -1.1293003873
 H         -4.1698046744       -4.4803300436       -0.5635699315
 H         -3.3985836667       -4.3998876341       -1.9050096599
 O         -2.5587836044        4.6392527074        0.7256611599
 H         -3.0432889009        5.4636003776        0.7869919026
 H         -2.6805150496        4.1896577201        1.6182831178
 O         -5.1038656007       -3.3440098323        0.4220620004
 H         -5.4009719516       -2.5200620019        0.0098625371
 H         -4.6673225424       -3.0873335583        1.2494042130
 O          3.9103957771        1.6924847939       -2.0325161823
 H          3.7172110942        2.0072546737       -1.1245079095
 H          4.8064634315        1.3228942772       -1.9839862113
 O         -1.4838463917       -3.4116958162        2.4173838305
 H         -0.5556384550       -3.1643222337        2.5486407906
 H         -1.4831775422       -3.8954106777        1.5649228277
 O          3.5716290096       -2.3873558295       -3.2823731575
 H          3.6781939460       -3.0090176829       -4.0021884946
 H          3.0436266718       -2.8523661352       -2.5810816658
 O         -3.8848928987       -2.4328593227        2.7865881412
 H         -2.9496110513       -2.7334099508        2.6619019947
 H         -4.2286847480       -2.9527709372        3.5134805473
 O         -5.8616144695       -0.7471939932       -0.3421626441
 H         -6.7919246957       -0.5252177488       -0.3704028737
 H         -5.5125301504       -0.4121936265        0.5185824993
 O         -4.1527252160        2.5642976494       -0.2454870530
 H         -3.5811112325        1.8312871805        0.0951059729
 H         -3.6369152684        3.3695541015       -0.0704624968
 O          2.3732965202        0.0961142084       -3.5498265402
 H          2.9158893188        0.6850222110       -2.9840033153
 H          2.8367391330       -0.7577040234       -3.5591087014
