  86
       -142.08699894
 H          0.0494248608        1.2780375216        0.6791674054
 C          0.4705210066        0.9964970653       -0.2873629915
 H          0.8906148707        1.8834018574       -0.7739682028
 C         -0.6228608807        0.4010939155       -1.1708994123
 H         -0.1730067869       -0.0089325058       -2.0755328837
 H         -1.3082366574        1.2004643420       -1.4439827259
 N         -1.3892329994       -0.6537640472       -0.5283709244
 H         -0.7781049075       -1.4180803654       -0.2670036322
 H         -1.8216191885       -0.2923739595        0.3152469232
 O          1.5051500558        0.0639870757       -0.0013713235
 H          1.8813177479       -0.2494977667       -0.8661810673
 O          0.6831039692        0.0105023960       -4.3353705472
 H          0.9341965035        0.0064859736       -5.2598581061
 H         -0.0554376025        0.6677048165       -4.2598052488
 O          4.2498126323       -1.1410981326        2.8374461035
 H          3.7831529547       -0.4414466710        3.3088402273
 H          4.6666753165       -0.7325821746        2.0663529074
 O         -2.0760591021        3.3246060008       -2.0015698497
 H         -2.9081819149        2.7926005858       -1.8424854424
 H         -2.3741683085        4.1816760439       -2.3095319633
 O          2.1959366545        0.7867630228        3.8523190290
 H          1.7719385869       -0.0747810757        4.0320978114
 H          1.4485686311        1.4188010194        3.9025370498
 O          0.0166612435        2.3594229496        3.5516101627
 H         -0.7878657126        1.9384455064        3.2269013598
 H          0.2965152902        2.9742480041        2.8557435222
 O         -2.1426197664        1.2313626121        1.8685203782
 H         -1.9645317606        2.1098013492        1.4681581689
 H         -3.0213913647        0.9809218689        1.5386524280
 O         -3.6475059670        0.1767845449       -3.7934541697
 H         -4.2302965027       -0.1289029391       -4.4878008204
 H         -3.3631369043       -0.6392815656       -3.2803498064
 O         -1.4438749942        3.5498655270        0.6890905344
 H         -1.5896120048        3.4958559101       -0.2716423950
 H         -0.5054866360        3.7333633474        0.8218488388
 O         -1.3714906119        1.6785214410       -4.1939623934
 H         -2.1787018011        1.1337662943       -4.1443557818
 H         -1.4475318604        2.3087497941       -3.4601489258
 O          2.4638052643       -0.7421082728       -2.3298899099
 H          3.3841001865       -0.4119209249       -2.3454563443
 H          1.9855122699       -0.3843610218       -3.0955717205
 O         -0.6172972596       -2.4737955145       -3.7181935048
 H         -0.0052461879       -2.8981294404       -3.0846005193
 H         -0.1833071514       -1.6473821749       -3.9776701761
 O          0.8136602728       -2.5015976766        0.7820057464
 H          1.0665836621       -1.5682995407        0.6606159614
 H          1.4034357129       -2.8324507758        1.5097704261
 O          2.3045321654       -3.0803090479        2.8484705135
 H          3.1181996683       -2.5473900240        2.7947587497
 H          1.7617090070       -2.6348165548        3.5199575043
 O          1.2456537336       -3.2135270586       -1.8749999646
 H          1.8297622820       -2.4661181719       -2.0713254706
 H          1.0648768615       -3.1541543901       -0.9232696012
 O         -1.6717921031       -3.0623549967        1.5399674583
 H         -1.6882297434       -3.9597541628        1.8737494596
 H         -0.7444352394       -2.8981529239        1.2388268584
 O         -1.6140313063       -1.0313815025        3.3948766531
 H         -1.7713396006       -0.2014855805        2.9193902242
 H         -1.7641531590       -1.7479663061        2.7532234026
 O          5.0188916923        0.0204930069       -1.9324619069
 H          5.6032146660       -0.7207450732       -2.1000899148
 H          5.0861388290        0.2055378953       -0.9749849454
 O         -4.3790383524        0.2318661140        0.5884642812
 H         -4.2342085725       -0.7339885614        0.3942042157
 H         -5.2607721135        0.2976318191        0.9561135228
 O          0.7533291165       -1.4448586269        4.4462959324
 H         -0.1373226135       -1.2664950652        4.0419233037
 H          0.6020383890       -1.5410579848        5.3866203992
 O         -4.1905226714        1.8290727785       -1.6757334025
 H         -4.1088774453        1.2229111541       -2.4340082379
 H         -4.2111951136        1.2710889726       -0.8779771335
 O         -3.9846217132       -2.3277834814        0.0945859180
 H         -3.7457170163       -2.3746302897       -0.8452803732
 H         -3.1976248837       -2.6140730570        0.5846494010
 O          5.2753664743        0.5426925472        0.7578200051
 H          4.4786095308        1.0720848359        1.0126390318
 H          6.0411245217        1.0674368627        0.9940623358
 O          1.2946213555        3.7725426658        1.4710734926
 H          1.9780628567        3.0657413606        1.4283401496
 H          1.7366916592        4.5628009744        1.7822072586
 O         -2.8410873706       -1.8463161259       -2.3990795963
 H         -2.1266228080       -2.2346386814       -2.9535044448
 H         -2.3382182103       -1.3420084011       -1.6999776277
 O          3.0092440876        1.6823751087        1.5022786651
 H          2.4920583868        1.0763656244        0.9288340249
 H          2.7965578837        1.3722227651        2.4173455538
