  301
       -509.46008147
 H         -0.8736784806        0.3473067878        0.4973888861
 O         -1.8015302613        0.1568436171        0.0415524390
 H         -1.9071478635        0.5948565330       -0.8682395072
 H         -2.0118316996       -0.8378237355        0.0399727344
 O          0.3902262979        1.7141462507        4.4017567739
 H          0.3453181359        2.0361078545        5.3038998909
 H         -0.5097404763        1.5578619060        4.0674530192
 O          1.4092119437        2.1275431375        7.0151567113
 H          1.3119058291        2.5635372371        7.8610168288
 H          1.2099718800        1.1828331541        7.1542396541
 O          0.2608528236        3.2335313512        2.0503923367
 H         -0.3366638325        3.3897406376        2.8038339206
 H          1.1552636046        3.3776356486        2.4075397253
 O         -4.1340457850       -0.6271799987       -1.4272282191
 H         -4.7919310001       -1.2670396907       -1.1094958445
 H         -3.3412609695       -1.1233950956       -1.7084227931
 O          2.5863348038        0.6612145976        3.4152887610
 H          1.6835038403        0.8530171207        3.7404962362
 H          2.6567047166        1.1431286590        2.5595949871
 O         -1.5652505526       -0.4264734378        5.5812331901
 H         -1.5759103606       -1.3799548468        5.8475582788
 H         -2.5208556538       -0.2361135498        5.3584614192
 O          0.0266204539        0.2109268800       -2.1083211145
 H          0.8780899146        0.0238012302       -1.6509496005
 H          0.1819231377        0.2545590110       -3.0606472229
 O         -2.3039476182       -2.3322324019        0.2117226123
 H         -1.4177792648       -2.6516477982       -0.0280635073
 H         -2.9501581329       -2.8510838669       -0.3221061122
 O         -0.0822095658        2.6974092875       -0.7252811206
 H          0.7444913588        3.0878616689       -0.4040819290
 H          0.1389483591        1.9527766871       -1.3050790104
 O         -6.5061574502       -1.7365962126        2.9288231499
 H         -5.8021746933       -2.2892079959        2.5313665543
 H         -7.2971797436       -1.9042740043        2.4153699507
 O         -0.0789965772       -0.9870505688        3.4253709778
 H         -0.5711940217       -1.7761052746        3.1162227305
 H         -0.6226554779       -0.6316369044        4.1596943147
 O          1.8500797908       -3.0111513489       -1.5613722743
 H          2.7104255927       -2.6833167517       -1.2249847248
 H          1.1813041556       -2.6778722640       -0.9162274615
 O         -6.2418926022        0.9641837256        2.7231729185
 H         -6.9604843188        1.2791435886        3.2721975690
 H         -6.1871443884       -0.0021678951        2.8759279775
 O         -4.2346902857        1.9264500588       -5.5943120108
 H         -4.3566167356        2.7222505821       -5.0607179392
 H         -4.0836692180        1.1988315115       -4.9642672333
 O          1.8990069409        3.0773138990       -5.2088232253
 H          1.8620101510        2.1404167400       -4.9455657828
 H          2.8430814890        3.2630019725       -5.2861942229
 O          5.8838625277       -2.6572211851        2.2357015253
 H          5.5240213395       -3.5504167255        2.1838088817
 H          6.1470087250       -2.3940594078        1.3366764149
 O         -0.8930825005        5.4680669498        0.8446818300
 H         -0.5118561984        4.6145918045        1.1336887775
 H         -1.7881117465        5.4953073279        1.2030339968
 O          6.0192259842       -0.2102745406        3.5091335693
 H          5.4244596575       -0.3278513800        4.2885114730
 H          6.2751211367       -1.1024273185        3.2436949159
 O          1.9623985336       -1.5542761590        5.0544218900
 H          1.3059109561       -1.3502410213        4.3495781478
 H          1.5366303141       -1.2828467148        5.8830070600
 O         -2.4023733166        1.4225948491       -2.1281022370
 H         -1.6290458378        1.8672845324       -2.5673002389
 H         -2.7714473731        0.8260866692       -2.7939957658
 O         -1.9265838137        1.2773348733        3.0757588673
 H         -2.2443072701        0.3925197338        2.8322077596
 H         -2.7214698111        1.7384244354        3.4247784964
 O          0.2793144460        0.6310449145        1.3160755527
 H          0.3003154556        1.5765641779        1.5768072836
 H          0.1815980575        0.0968692710        2.1331688942
 O          0.3167798295       -1.9567031692        0.2619353567
 H          0.6095427363       -2.4365035107        1.0606435877
 H          0.8432357365       -1.1453421957        0.2227506833
 O         -3.5522466626       -0.2674581689       -4.1399090089
 H         -3.4645037303       -0.6963386898       -5.0112295950
 H         -4.1895286717       -0.8143287807       -3.6530843040
 O         -4.0229108917        0.0124103003        4.9160871459
 H         -4.5846605155       -0.6742226852        5.3306450231
 H         -3.9518528056       -0.2588055694        3.9777611596
 O          6.7199546265       -1.2042105072       -0.0128607464
 H          7.6547717636       -1.0232026791        0.0825660553
 H          6.2373986900       -0.3978074017        0.2690906117
 O         -3.5350202496       -0.7503472118        2.3825667739
 H         -3.9561132355       -0.1196436805        1.7620441054
 H         -3.8019146305       -1.6413756881        2.1055976579
 O          3.3990860583       -1.5748020865        2.2052428027
 H          4.2894507594       -1.8506113255        2.4815460164
 H          3.1404503807       -0.7791711123        2.7127090714
 O         -3.4114667902       -3.7593109460        4.5341761491
 H         -3.6369322326       -4.6467020796        4.2560068127
 H         -2.8298573659       -3.3894900772        3.8285547196
 O         -0.8164464188       -4.6174718019        0.0265144941
 H         -0.6845162414       -4.5653314172       -0.9405670348
 H         -0.0633788096       -5.1116058331        0.3881276319
 O         -4.1660144848        2.5910750068        3.6438294618
 H         -4.8640207768        2.0096307246        3.2987400226
 H         -4.1303119197        3.3740274347        3.0724109394
 O         -0.4983232318        2.6364627472       -3.4465462151
 H         -0.9596345383        3.3537775222       -3.9151582980
 H         -0.2190541185        1.9822666464       -4.1050414957
 O         -5.4527457181       -2.1504260695        5.5052396438
 H         -6.0390410530       -2.0847768853        4.7403635246
 H         -4.7634170013       -2.7877840093        5.2554895764
 O          0.5678595395       -0.4593616709        7.1731990069
 H         -0.2319638374       -0.3272465767        6.6182097768
 H          0.3094338204       -1.0756294782        7.8600363601
 O          1.5267544802        6.3800657465        1.6006342271
 H          0.6332040855        6.3761259626        1.2178786160
 H          1.3868961675        6.3182181477        2.5557390742
 O         -5.1238213944       -2.4607566279       -3.4000910692
 H         -5.9712788856       -2.5664375107       -3.8300814104
 H         -4.4662564179       -2.9441868609       -3.9596414897
 O          2.1570180047        4.1749202053        0.1321869263
 H          1.8721832307        4.8483501735        0.7781824270
 H          2.7752765154        4.6430917172       -0.4398161476
 O         -4.5415085312        3.9625298628       -3.7142581446
 H         -5.1279402349        4.7142620515       -3.7873329750
 H         -4.1456078070        3.9815357078       -2.7874834011
 O         -1.1004633038       -2.2034259631       -4.9580590103
 H         -0.2129584810       -2.0176252345       -4.5810157122
 H         -1.1489491756       -1.6909598559       -5.7847499529
 O         -5.6408296190        1.6668342748       -2.0236280869
 H         -5.4042342145        2.2640036639       -2.7400164037
 H         -5.0187320251        0.9249193664       -2.0590286215
 O         -4.0564637879       -3.7531963017       -1.1749913528
 H         -4.5373366819       -3.2371737333       -1.8372824221
 H         -3.6181218025       -4.4634823727       -1.6958986561
 O         -4.3309690017        1.0937148908        0.6297525028
 H         -4.2688431864        0.5288362681       -0.1643015070
 H         -3.5023457364        1.6194113953        0.6415439749
 O         -4.6247884959       -3.1561515351        1.6375803250
 H         -5.0066103402       -2.9822265817        0.7641665355
 H         -4.0837506217       -3.9633911575        1.5378491255
 O          3.5367741415        2.2758450460        5.2342603694
 H          2.8309847153        2.3165814491        5.8988901082
 H          3.2378249112        1.6007747578        4.5689982912
 O          2.1598950912       -0.1313972719       -0.6596303140
 H          3.0251992278       -0.0173725208       -1.0893906776
 H          2.1572792622        0.5423808471        0.0460544159
 O          4.0691175882       -2.1785784457       -0.3480696996
 H          3.7440017788       -1.8924495629        0.5266886637
 H          4.4821849831       -1.4028765148       -0.7498872917
 O          1.3606120354       -5.7294111827        1.3148971196
 H          1.4962895793       -4.8023117917        1.6107991182
 H          1.7751157532       -5.8059148329        0.4192245898
 O          4.0350549320        6.3010876361        0.2044157120
 H          3.2686972975        6.6446021818        0.6804612908
 H          4.4981687129        5.7186188771        0.8238679475
 O          0.8621614965       -3.7817915542       -6.2318149217
 H          1.3356577509       -4.1825538594       -5.4848524611
 H         -0.0520110900       -3.6892395654       -5.9400912254
 O          1.4019757579       -3.2664578432        2.2963391859
 H          2.2010030235       -2.6961812885        2.3376621967
 H          1.0758946298       -3.3892484144        3.2036675949
 O          2.5777441898        3.9317971383        3.3024334091
 H          2.9435085589        3.3962578314        4.0348962518
 H          2.1010009833        4.6646385211        3.7173569309
 O          2.4606563269        0.6361187385       -4.0298170495
 H          2.0024831422       -0.2224328084       -3.9156405075
 H          2.3998358965        1.1306111180       -3.1879202746
 O         -0.7232653870        5.0745406851       -1.8752308530
 H         -0.8517763545        5.4886395132       -1.0085586618
 H         -0.6773833096        4.1195470537       -1.6669540782
 O          5.5276384762        0.9528936423        1.1851711470
 H          5.5889914987        0.5253889047        2.0714424446
 H          6.0465949807        1.7574174821        1.2441754741
 O          4.3041822387        5.1898024006       -2.2806091862
 H          4.3483879658        5.8547286051       -1.5767834215
 H          3.3809170837        5.1848364778       -2.5925196717
 O          1.3875586949       -1.1766136613       -6.6898707883
 H          1.2588185613       -2.1465060218       -6.5821887723
 H          2.3382769546       -1.0566355458       -6.6537633834
 O          2.5468436438        2.3220985944       -2.0100586663
 H          2.1273878360        3.1729954765       -2.2536678752
 H          3.2725373448        2.5206053102       -1.3955091012
 O          4.3532108755       -3.9576159407       -3.1077272573
 H          4.9818155282       -3.2261190017       -2.9267085068
 H          4.6467528531       -4.6645710486       -2.5271602893
 O          0.7622262667        5.7772714350        4.2345356282
 H          0.6443237894        6.3493039543        4.9918173874
 H         -0.0538444655        5.2369814075        4.1545927891
 O          4.3907601165       -0.4658989081        5.5731307038
 H          3.5154218683       -0.8031846545        5.2979520322
 H          4.2566073049        0.4511441035        5.8381269017
 O          2.3975363808       -5.5978826988       -1.0899502496
 H          3.3470019059       -5.4848723985       -0.8895609214
 H          2.0992930851       -4.6972775626       -1.3428388381
 O         -0.8719275482       -5.7362519594        2.9098976657
 H         -1.6758230092       -5.9572454192        2.4226592019
 H         -0.1184067806       -5.9696584983        2.3410628821
 O         -1.2668079171       -0.9414974729       -7.4274430374
 H         -1.4254362413        0.0210157496       -7.3640085081
 H         -0.3201499387       -1.0457751465       -7.5917941750
 O          4.7002834502        0.3205797493       -1.4861612567
 H          4.8702852049        0.3415377739       -2.4463573716
 H          4.9227549545        1.1957524588       -1.1398804349
 O          6.1398740355       -2.0051415006       -2.6998105387
 H          5.9684968233       -1.2058886156       -3.2102078666
 H          6.3424807142       -1.7402701595       -1.7899289420
 O          4.7998998409        4.0800276467        1.7616012321
 H          5.3917039902        3.6804828034        2.4220790303
 H          3.9282752343        4.0823698206        2.2053141511
 O         -6.2282360359       -1.9780571462       -0.3303184841
 H         -6.8314327615       -2.3985777792       -0.9408816681
 H         -6.6087635346       -1.0827974453       -0.1246774941
 O          4.8574078330        3.0367922197       -0.7426782653
 H          4.8783556344        3.4243209345        0.1541981690
 H          4.8789158108        3.7983873425       -1.3530023636
 O          1.8300115117       -4.7321425025       -3.8274126563
 H          1.8396048968       -5.6370920714       -3.5079615514
 H          2.6823447898       -4.3503492661       -3.5417745171
 O         -3.4285399337        4.6666099523        1.9376562632
 H         -4.2570295954        4.8114873725        1.4728821744
 H         -2.9812666772        3.9342828946        1.4359458187
 O         -3.4972592570        3.8486940282       -1.3763108220
 H         -3.0754783445        2.9751789972       -1.4623372111
 H         -4.2088067389        3.7534229281       -0.7166105259
 O         -7.0960582150        0.4621750356        0.0920006162
 H         -6.6795190598        0.7638281397        0.9183396189
 H         -6.6772249564        0.9516266933       -0.6317380324
 O          4.8632954666       -4.7768478312       -0.3519340593
 H          4.8159013653       -4.9941409522        0.5859250925
 H          4.6875863748       -3.8170515203       -0.4032894117
 O          2.9011992493        1.7625993013        1.0763332689
 H          2.7068807120        2.6761934033        0.7961235056
 H          3.8538009595        1.5923627586        0.9787765309
 O         -0.5838712114       -4.1533338742       -2.5824597511
 H          0.2849769062       -4.1832611189       -3.0177645607
 H         -0.8975526510       -3.2276561824       -2.5600967102
 O         -2.3228339313        2.4611466220        5.7916098668
 H         -3.2192150184        2.3639780904        5.4422001133
 H         -1.9890576971        1.5615820967        5.8829327020
 O         -1.8099888492        1.5752035098       -6.7054057708
 H         -2.7191398506        1.7858415694       -6.4092827502
 H         -1.3390566162        2.4338215049       -6.8027233295
 O          4.4917402311        2.9918624429       -4.0720705909
 H          4.8015927550        3.8545451899       -3.7825749368
 H          3.8618167010        2.7048468920       -3.3904778631
 O         -3.7980562985       -1.3994446200       -6.6246557936
 H         -4.3366776780       -0.7287332344       -7.0488174045
 H         -2.9285798423       -1.3597506128       -7.0605241086
 O         -2.9133035374       -5.4609153762       -2.8532079396
 H         -1.9902990495       -5.1497704988       -2.7935542610
 H         -3.2194280921       -5.1648575369       -3.7172480986
 O         -1.8970424713        4.7689102121       -4.3191254417
 H         -1.6210053796        5.1298682701       -3.4575124820
 H         -2.8328218118        4.5322634185       -4.2337931083
 O          1.3526790310       -1.7849043378       -3.8277070002
 H          1.5271995147       -2.2495959558       -2.9742830395
 H          2.0620190733       -2.0741891735       -4.4306489712
 O         -1.4134626064        4.2045517481        3.9554920124
 H         -2.1974210883        4.5026740342        3.4789778570
 H         -1.7226439825        3.6121133344        4.6745847023
 O         -2.1981315375        2.6471074362        0.8477849619
 H         -1.4191013736        2.7189854408        0.2572351398
 H         -1.9023219957        2.1779308917        1.6591380046
 O         -0.4388699388        3.8363238568       -6.5435347421
 H         -0.9083723916        4.3788396436       -5.8952010139
 H          0.4323923198        3.6351000691       -6.1676995693
 O         -1.4101545148       -2.9535166266        6.2596451510
 H         -2.2144434237       -3.3314006609        5.8693917693
 H         -0.6731388626       -3.3551510571        5.7670270090
 O         -5.5297436311        3.4678000813        0.4080766681
 H         -6.3299961830        3.3840851951       -0.1109189056
 H         -5.2255395046        2.5474037488        0.5830759816
 O          3.2806913182       -3.8744802679        4.8055242276
 H          4.0450371798       -3.8105210333        5.3780840183
 H          2.8235461109       -3.0061490026        4.8651341327
 O          3.6837294079       -2.1800004772       -5.1943018008
 H          4.3263995100       -1.4903891390       -4.9916973602
 H          4.0175728575       -2.9834661068       -4.7784577635
 O         -3.3691544093       -3.6353176116       -5.0088620394
 H         -3.6881081621       -3.2550907204       -5.8354766329
 H         -2.4870440529       -3.2318750612       -4.8836260916
 O         -1.7680747310       -1.6925603431       -2.3731182977
 H         -1.0626621409       -1.0343097379       -2.1689311123
 H         -1.8842537882       -1.6299493693       -3.3329722942
 O          5.0211390951        0.2356689710       -4.1718085398
 H          4.0330818197        0.3652923665       -4.2208487411
 H          5.3735728004        1.0883877618       -4.4478237194
 O          4.0510802262       -4.8952262237        2.3547149891
 H          3.8010023474       -4.5279159224        3.2216550560
 H          3.3327325538       -5.4942904086        2.1205232928
 O          5.9360250919        2.6055228888        3.7517669237
 H          5.2361438161        2.6504776128        4.4161222285
 H          6.2412167325        1.6900537382        3.7659892526
 O         -3.0744520017       -5.3697610989        1.1596529925
 H         -3.5998462642       -5.8357068595        0.5082785884
 H         -2.2817968322       -5.0386956014        0.6664898696
 O         -0.0967598458        0.4788992542       -4.9786939633
 H         -0.7910808812        0.8156628946       -5.5808720877
 H          0.5237719105       -0.0164264734       -5.5384085820
 O          1.7102197653        4.6729392261       -2.9515178430
 H          1.5654054380        4.2596999980       -3.8205772182
 H          0.8334846358        4.9473937149       -2.6131430394
 O         -1.6126953968       -3.0473259418        2.7089978809
 H         -1.2192032222       -3.9319743209        2.6389325065
 H         -1.9543842437       -2.8059651555        1.8243726235
 O          0.4821643145       -4.1782814015        4.7041919822
 H         -0.0082289653       -4.8907399412        4.2657157651
 H          1.3430614693       -4.5210332298        4.9684597247
