  144
       -244.31881955
 O          3.0481997555        2.1165963597        1.1680387199
 H          3.3845739906        2.9735708980        0.8885056166
 H          3.2710543637        1.5175260282        0.4300258085
 O          2.9929554525        0.6079280557       -4.7752367719
 H          2.6001178075        0.0779528090       -4.0521534507
 H          2.3938167211        0.4724876813       -5.5137006241
 O         -1.9529092435        1.5075622575        4.8794474806
 H         -2.0997754921        0.5754812671        5.1251304223
 H         -0.9893850955        1.6388475377        4.8372862516
 O         -6.4628213165        2.7489443711        0.5290521225
 H         -6.2116050159        2.1876816520        1.2906625346
 H         -6.6466729545        2.1403739902       -0.2027124187
 O         -4.4192688949        4.0899335037       -0.3535437284
 H         -4.6901022364        4.9874840515       -0.5459589522
 H         -5.2236967646        3.6323530083        0.0344750001
 O         -1.6482932111        0.4272817835        2.2739378792
 H         -1.8653008350        0.9115955407        3.0832364461
 H         -2.3957093832        0.5114277983        1.6685303120
 O         -2.1396574646       -3.5676990866        0.4100203531
 H         -3.0263494333       -3.4137822646        0.7727516607
 H         -2.1922340542       -3.3652080857       -0.5382223043
 O          0.3888650660        1.8445994924       -3.3754830162
 H          1.2584567959        2.2689110748       -3.2876937841
 H          0.5042728706        1.0429212363       -3.9279737513
 O         -3.8136054792        3.0250495713        3.7932070055
 H         -3.1465796748        2.4955492774        4.2865697794
 H         -4.2131990839        3.6245938467        4.4234311815
 O          0.3118172628       -0.4076449363       -4.8979714134
 H         -0.6285386701       -0.3007954304       -5.1416553295
 H          0.3754042715       -1.2708631873       -4.4669980000
 O         -2.0467773145        2.6038524719       -3.9446104288
 H         -1.1071570532        2.3870935012       -3.7104001331
 H         -2.0188794689        3.4142241903       -4.4536380361
 O         -3.7061915404       -0.8262878299       -2.8902661134
 H         -3.0288932433       -1.5070256306       -2.6657735340
 H         -3.4268512129        0.0070124972       -2.4945183231
 O          0.2481564608       -3.1361733592       -3.8440747204
 H          0.7647336622       -3.6043631175       -3.1558349119
 H          0.3735107316       -3.6208215651       -4.6605874263
 O         -2.3432184474        0.0829082169       -5.1698427737
 H         -2.3535995957        1.0111550998       -4.8927523265
 H         -2.9606729386       -0.3773958740       -4.5819610510
 O          1.5701205462       -4.6053782164       -1.9566558718
 H          1.7214065661       -5.5199851972       -2.1974483319
 H          1.0766740573       -4.6396985598       -1.0822180767
 O          0.4173133795       -4.7824795441        0.3481334500
 H          0.9507317975       -4.2890799675        0.9980105646
 H         -0.4923810511       -4.4672380360        0.4399155338
 O         -5.3904195751       -1.2732785830       -0.8581500423
 H         -6.0599750407       -0.5907693545       -1.0163055978
 H         -4.8806629176       -1.3186618867       -1.6961150954
 O         -1.8745302022       -2.6153972637       -2.1957070743
 H         -1.1985181524       -2.0348403886       -1.7788880902
 H         -1.3968777235       -3.0091651681       -2.9404098901
 O          3.3980437325       -2.7001523615       -1.3427276202
 H          2.9184411676       -3.5343079437       -1.4806672450
 H          4.3026643829       -2.8825403028       -1.0538686201
 O          2.4560378251       -1.2135263087        0.7186152483
 H          2.7179329294       -1.6291620588       -0.1253562973
 H          2.2252691993       -1.9788552518        1.2817269261
 O          4.4279558591        3.7837096229       -0.6603467529
 H          3.9468227021        3.5774732519       -1.4799279625
 H          4.8985742545        4.6037304885       -0.8113738542
 O         -6.3379263233        1.1403113588       -1.7578221506
 H         -6.8592019361        1.2745382739       -2.5495624812
 H         -5.4261473852        1.4286440584       -1.9620270483
 O         -0.1196621569       -1.9885012721        1.3219298753
 H         -0.9237865006       -2.5253480554        1.2456404272
 H         -0.0876781028       -1.6292872786        2.2304009913
 O         -4.4405519974       -1.2509819071        3.4656610352
 H         -4.4541992379       -1.8411943038        2.6974647186
 H         -4.8596260784       -0.4194166107        3.1827045237
 O          5.8890112772       -2.4342729130       -0.1979240939
 H          5.5868645486       -1.8124475081        0.5124823532
 H          6.7295395958       -2.7924419610        0.0865821650
 O          0.0751171928        3.3986778104        2.0345014452
 H          0.2062838283        4.3119784973        2.2864460853
 H         -0.8644919867        3.3057635419        1.7671379057
 O         -3.6784744701        0.4355638268        0.3465856227
 H         -4.2585885519       -0.2772158319        0.0072816113
 H         -3.6385604384        1.1064886188       -0.3531213914
 O         -5.2563658323        1.1729285491        2.3865518415
 H         -4.6209700311        0.9604647656        1.6702271063
 H         -4.8224211205        1.8384002061        2.9477759425
 O          4.4195851499       -0.7221045880        4.1108681417
 H          5.2162276590       -0.7710153815        4.6392333120
 H          4.6955289754       -0.7259294270        3.1636095692
 O          5.9694613875        1.5733736689        0.3649959434
 H          5.4681641755        2.3550926226        0.0902631016
 H          6.2657362538        1.1427518224       -0.4474594927
 O          0.6015099122        1.6412109287        4.0472121811
 H          1.5775845794        1.7069291272        4.1773645901
 H          0.4033729162        2.2920348658        3.3481214418
 O          3.2201107786        1.7543760811        3.9233303608
 H          3.3099317006        1.9077531427        2.9691563899
 H          3.6266342106        0.8900068811        4.1002771835
 O          3.0083308203        2.6833708213       -2.8600015442
 H          3.1803069583        1.9719793637       -2.1961072926
 H          3.2916214480        2.3001138571       -3.7000768716
 O          4.9398201600       -0.6326726382        1.5062287543
 H          4.0005781256       -0.6926699817        1.2143030824
 H          5.2857697369        0.2312634134        1.1868218699
 O          0.1577819121       -1.0118775857        3.8183049422
 H          0.3447344257       -0.0536505654        3.8943170962
 H         -0.7004718089       -1.1526085383        4.2507447450
 O         -2.5006846063        3.1195180845        1.3685087141
 H         -2.9814531993        3.1561049851        2.2102385326
 H         -3.0751713658        3.5533862712        0.7199538841
 O          2.3123501187       -3.5947757837        1.9788772622
 H          2.2558091737       -3.2763571406        2.9235596016
 H          3.0520893160       -4.2014041022        1.9515039353
 O         -3.7295173634        2.0086465740       -1.9175261320
 H         -3.1416166045        2.2471565720       -2.6603448505
 H         -3.9088957949        2.8458689251       -1.4448287644
 O          5.9108923972       -0.1729027555       -1.8194569200
 H          5.9838775858       -1.0439428365       -1.3949901032
 H          5.8093783636       -0.3434304371       -2.7768100966
 O          5.4130049941       -0.5893669562       -4.4401790190
 H          4.5617919728       -0.1511569452       -4.6412465448
 H          6.0299700184       -0.3275265932       -5.1235094608
 O          2.3175446358       -2.5406621684        4.3531347847
 H          3.0559613196       -1.9105768012        4.3674275567
 H          1.5081484253       -1.9981109767        4.2969072052
 O          2.0819114264       -0.8567410634       -2.6892646789
 H          2.5920176988       -1.6543510103       -2.4746632836
 H          1.2222880723       -0.9477459722       -2.2380694500
 O          3.5051282760        0.7338044569       -1.1367085112
 H          2.9386030642        0.1054116427       -1.6351023210
 H          4.4262341255        0.4421901894       -1.3237633139
 O         -4.7052026593       -2.9039366911        1.2066529936
 H         -5.0386440877       -2.3686734279        0.4627216107
 H         -5.3579113998       -3.5845733963        1.3759081332
 O         -2.3161889483       -1.1651998068        5.0268570381
 H         -2.5298706656       -1.7344399368        5.7661036857
 H         -3.0842927210       -1.2176844603        4.4043240604
 O         -0.0718390585       -1.0391509301       -1.1434682599
 H          0.0743471419       -1.4766446870       -0.2724143572
 H         -0.0888554019       -0.0976387207       -0.8386672956
 O          0.0627279423        3.7414573562       -0.9967653160
 H          0.0336869321        2.9997896333       -1.6079030177
 H          0.2509198329        3.3220671179       -0.1458528528
 O          0.2387798737        1.1540898473        0.2508609120
 H          1.1531412452        1.1301025347        0.5537093624
 H         -0.2996070488        0.9246035952        1.0271980652
