  249
       -422.61009381
 O         -0.5432658585       -4.6334381624        3.8943045869
 H          0.1120597173       -4.1005128426        4.3676437309
 H         -0.3581281324       -4.4993073117        2.9494087682
 O          2.3996534783       -2.0932286586       -0.6619730385
 H          2.1958447784       -1.9899167977        0.2934952528
 H          3.0281175025       -2.8223056218       -0.7165127699
 O          5.4327687031       -0.8658612626        3.5873939413
 H          4.9423445563       -0.7666216257        2.7363845623
 H          5.2652332642       -0.0335843459        4.0748430139
 O          2.6586179491        0.0862459942       -4.2344127385
 H          3.2426424919        0.1402885382       -3.4560623342
 H          2.1348971374        0.9007567414       -4.2454143813
 O         -5.8578134810        1.8873572486        2.8581262375
 H         -5.3972337850        1.9595657073        1.9960021388
 H         -5.3485768772        2.4354533650        3.4626132739
 O         -1.8440056059        5.8304175352       -2.7303530987
 H         -2.7399230832        5.4909696270       -2.9041393167
 H         -1.8419375776        6.0203849852       -1.7740802619
 O         -2.5250976262        2.5859510269       -1.7603083595
 H         -2.7453054806        1.9166964500       -2.4360661567
 H         -1.6909022411        2.9972335379       -2.0580198574
 O         -1.3118412005       -3.4590582930       -0.8807539077
 H         -2.0001334101       -4.1338322210       -0.6891250785
 H         -0.7461367535       -3.8567706903       -1.5780163922
 O          1.4658153372       -2.0574522437       -3.2784300344
 H          1.5864645383       -1.9698820002       -2.3172887409
 H          1.8728603230       -1.2564756512       -3.6942621856
 O         -0.9902148772       -1.6013388899       -4.4119726294
 H         -0.9070569455       -0.7606601911       -4.8866278850
 H         -0.1169157110       -1.7850553743       -4.0260157147
 O         -2.7089657510        0.5664978017        2.3883129678
 H         -3.5052927096        0.0389961926        2.6221178050
 H         -2.2666734737        0.0914668506        1.6301660589
 O          2.4406600615       -5.5061349200       -2.0924009087
 H          3.1296762636       -4.9130731880       -2.4064432605
 H          2.4486412308       -5.4610832049       -1.1194575197
 O          3.7612719120       -3.1141370295        3.4771621225
 H          4.2364829691       -2.3492708756        3.8415878231
 H          4.2633983904       -3.3955455662        2.6993019309
 O          6.0327511076       -1.1027098781       -3.4185509614
 H          5.8934418192       -1.0747173208       -4.3660169162
 H          6.3983913130       -0.2032881537       -3.1861147062
 O         -2.8483813068       -1.9281769628       -2.4715453777
 H         -2.3253534375       -2.4518533636       -1.8266629982
 H         -2.2567102495       -1.7813185238       -3.2342012240
 O         -3.1393695783       -3.1777205260       -5.2589119318
 H         -2.2943206532       -2.7089509464       -5.2427723271
 H         -3.0034630649       -3.9367877221       -4.6628236924
 O         -4.5442370998       -0.8700415420       -4.7799330311
 H         -4.1242994452       -1.7186771710       -5.0177944920
 H         -5.4346244250       -1.0642506159       -4.4798549129
 O         -5.8782262447        5.3413848941       -0.5655874740
 H         -6.0717693168        6.2774845353       -0.5240958722
 H         -5.2919343574        5.1401676985        0.1919514383
 O         -7.7997642293       -1.2848309471        0.0045815009
 H         -7.9485568526       -1.9837330781        0.6607284465
 H         -8.0185610283       -0.4361193865        0.4498097366
 O          5.8152904197       -4.4532160560       -1.2415598671
 H          5.1749652939       -4.1432416956       -1.8992482898
 H          6.6549086807       -4.0620798762       -1.5176933120
 O         -4.2378578344        4.4898955910       -2.6284444741
 H         -3.7030993594        3.7883622403       -2.1998436049
 H         -4.8477669026        4.8232399881       -1.9519116733
 O          2.7945947292       -0.5558979441        4.8832952686
 H          3.3660330775        0.0480741346        5.3599011530
 H          2.3739138586       -0.0448812348        4.1790436121
 O          1.3999597392        4.1925518211        0.9291112147
 H          0.5718922729        4.4512387740        1.4152446517
 H          1.3258749751        3.2334751611        0.7820202397
 O          2.4789903469        2.7409773306        4.0516612237
 H          2.2199670505        2.0542852502        3.4072184637
 H          2.8676814734        3.4642331853        3.5282504849
 O          0.1180269084       -4.4917602370       -2.8904231707
 H          0.8954161858       -5.0252632521       -2.6143862809
 H          0.4946520392       -3.7151492661       -3.3215296394
 O          7.8189816619       -1.1343401198        2.5806307893
 H          6.9041801937       -1.0457534612        2.9785147383
 H          8.3815161787       -1.4408181308        3.2911797312
 O         -5.1454785736       -3.1733429726       -3.0759604840
 H         -4.2852986474       -2.7285189604       -2.8791494839
 H         -4.9724355644       -3.7418419892       -3.8288993703
 O         -0.8184328983        0.6569001627        4.2356444948
 H         -0.8828342641       -0.1060172081        4.8647924722
 H         -1.5627137323        0.5526651029        3.6068628910
 O          2.3208525981       -5.2108333581        0.6282512278
 H          2.3362759328       -6.0176926205        1.1422446226
 H          1.4659024612       -4.7495288599        0.8618190003
 O          3.4111276716        1.7994956099        1.4248695268
 H          3.4723159128        0.8334795801        1.4094422399
 H          4.2834474541        2.1061704452        1.7342631724
 O         -4.7244060157        2.0441069260        0.4184205216
 H         -5.5860491070        2.3004434475        0.0121756551
 H         -4.3306183010        1.4096154549       -0.1995882228
 O          3.8064030779       -0.1288008175       -1.8188869134
 H          3.3145974767       -0.8127654725       -1.3164540556
 H          4.7271891425       -0.1584536906       -1.5026105309
 O         -0.7217475869        0.8604494615       -5.6280102798
 H         -0.0205536025        1.4160926212       -5.2238633377
 H         -0.7193561289        1.0269343569       -6.5700905284
 O         -5.2230049071       -1.4141372656        0.2966238790
 H         -4.7988551802       -0.8093944476       -0.3588295208
 H         -6.2006427266       -1.3293145355        0.1453817218
 O         -7.0080673828        2.7820106948       -0.6932959923
 H         -6.8329485166        2.3076804659       -1.5357470781
 H         -6.8489933278        3.7237749365       -0.8389583000
 O         -0.2284458635        3.2811346966        4.4705951342
 H         -0.5053543515        2.3452152262        4.5000570355
 H          0.7419622771        3.2370511607        4.5120690512
 O         -5.4964724255       -4.0110151975       -0.5651342072
 H         -5.3977280159       -3.1189558323       -0.1834074439
 H         -5.5682511437       -3.8596471959       -1.5241814902
 O         -8.0679517527        1.0852318291        1.2318640337
 H         -7.4948339882        1.3302151927        1.9692887525
 H         -7.8881717860        1.7368204656        0.5373248135
 O          7.7667640151       -2.8353025425       -2.3310710331
 H          8.4877235047       -2.9242654305       -2.9542286728
 H          7.1232174784       -2.2016681111       -2.7283034492
 O          4.3057734501       -0.7997776958        1.2062408279
 H          5.0208184041       -0.4462256717        0.6353537009
 H          4.2901100489       -1.7605464580        1.0522270147
 O         -2.9322181292        1.0818291105       -3.9711751635
 H         -2.1791531357        1.0518828069       -4.5765176748
 H         -3.5099025154        0.3307349657       -4.2222416358
 O          6.1248058830        0.1297045254       -0.4546229843
 H          7.0034700557       -0.2848009260       -0.3832744395
 H          6.2487889102        1.0977320599       -0.5091788754
 O         -4.1242966727        0.1820420300       -1.4698177714
 H         -3.6850297387       -0.5069365856       -2.0076421946
 H         -4.8421422664        0.5751269432       -2.0205103111
 O         -0.2512545856        3.7701080982       -2.6528089110
 H         -0.8066217608        4.5801446744       -2.8239988026
 H          0.5474114677        4.1204736026       -2.2030238117
 O         -5.0452793120        2.7528559209       -4.5801927353
 H         -4.2270369550        2.2267893079       -4.5522584616
 H         -4.8574866540        3.5310738091       -4.0256239269
 O          4.8942590665        1.5878226757        4.5917812750
 H          5.3852752694        2.0189169379        3.8746646042
 H          4.0123309298        2.0090709325        4.5632283066
 O         -7.5870871183       -3.1345880251        2.0911406686
 H         -6.8388010396       -3.1580983515        2.7069093918
 H         -8.3245896300       -3.5328034061        2.5523623467
 O         -1.0515819639       -1.5196768484        5.6588194923
 H         -1.7356570228       -2.0280034597        5.1744707130
 H         -0.2535704227       -2.0591216272        5.6269307187
 O         -3.1910857645       -5.3222185889       -0.6038637686
 H         -3.1663592307       -5.8162132152        0.2185605802
 H         -4.0610772890       -4.8512686640       -0.5922154965
 O         -4.0774116544        4.5007541074        1.2619166953
 H         -4.1582967996        3.6035142336        0.8765348555
 H         -3.8389562369        4.3358759053        2.1864072411
 O         -6.1683119839        1.2916834718       -2.7149121114
 H         -6.6395318556        0.4729255916       -2.9535321274
 H         -5.8872180667        1.7715398556       -3.5337688691
 O          5.9282073037        2.5042263322        2.1997466755
 H          6.7224628060        2.0488881723        1.8652142364
 H          5.9571998863        3.3994364605        1.8363026253
 O         -0.7975708300        4.6474656405        2.2388951175
 H         -1.3534901636        3.9947655043        1.7726784385
 H         -0.6079474866        4.2473024979        3.1148347847
 O          1.3364464096        0.5577619680        2.7814355887
 H          0.5134462321        0.5731570324        3.3360280813
 H          1.0943878358        0.9469528740        1.9164596969
 O          4.4373419571       -3.5243985275        0.8292616539
 H          5.0740006224       -3.8805190996        0.1747361127
 H          3.6896267239       -4.1515471515        0.8242532711
 O          1.0988331999        2.4212263960       -4.4353245153
 H          1.5755186746        3.1072429359       -4.9035925358
 H          0.5455793439        2.8945918880       -3.7538414397
 O          5.5410245537        4.8854639380        0.8109731682
 H          5.2231578809        5.4115337965        0.0548510586
 H          4.7992022018        4.9151772467        1.4434127752
 O          1.8115624058       -1.9490973411        1.9730965647
 H          2.4604063213       -2.3740040691        2.5724622366
 H          1.6687677575       -1.0476523865        2.3312176428
 O         -3.0473967643       -2.7921167521        1.4019960470
 H         -3.4100900820       -3.6918550207        1.5184304623
 H         -3.7981788553       -2.2681191861        1.0947937421
 O         -4.6132864640       -4.9565717642        1.9046369122
 H         -4.9485234214       -4.4770654335        2.6823440427
 H         -5.2920638049       -4.8624498205        1.2254852101
 O          0.1613934300       -3.9281512161        1.3243123020
 H         -0.4288180078       -3.6736775018        0.5833024180
 H          0.6217122955       -3.1145808107        1.6151113662
 O          3.3932184330        2.3959510675       -1.1302094723
 H          3.2981565819        2.2695321261       -0.1516673015
 H          3.4426280717        1.4880141917       -1.4900081263
 O         -2.0767301116        5.9400909477        0.0028698861
 H         -2.8276786794        5.4503876318        0.3814521348
 H         -1.3939652274        5.8971256867        0.6777598922
 O          8.3811167223       -1.3533291616       -0.1426208604
 H          8.1843187790       -1.6440096974        0.7575945472
 H          8.1743724053       -2.0687060796       -0.7679737308
 O         -7.1007356317       -1.2333274819       -2.7955969932
 H         -6.4839949073       -1.9817976967       -2.8544498206
 H         -7.5051427697       -1.2895219932       -1.9185584246
 O         -2.6581096047       -3.0284515263        4.1038877719
 H         -2.0053218837       -3.7626736653        4.1104036421
 H         -2.7121506704       -2.7613429226        3.1665339040
 O         -5.3669088012       -3.1363743181        3.8610500556
 H         -4.4890389190       -3.2946939101        4.2515858461
 H         -5.3106578937       -2.1946912488        3.6078112828
 O         -5.0219426876       -0.6483255481        2.8435136407
 H         -5.5106513153        0.1806330292        3.0053819587
 H         -5.1934196481       -0.8989390940        1.9102827708
 O          8.2570901106        1.3096927574        1.4738212230
 H          8.1204556718        0.3939839761        1.8004709510
 H          8.9718670721        1.6818841143        1.9905376157
 O          1.4169529969       -2.9126807126        4.9941948626
 H          2.1593269889       -3.4183662890        4.6448367732
 H          1.7933160983       -2.0217809985        5.0973355836
 O          4.3134715433        6.1253135676       -1.2918584868
 H          4.6837662643        6.3108728479       -2.1540751618
 H          3.4581704020        5.6700509862       -1.4438424526
 O          9.1651919241        1.0377796724       -1.2380818305
 H          8.8402090220        1.5169744411       -0.4648480465
 H          9.1609724752        0.1108784125       -0.9596847266
 O          3.3764294267        4.8357882978        2.5037069914
 H          2.6684058136        4.5905573013        1.8501319471
 H          3.1350944886        5.6907002460        2.8600522178
 O          2.0591761253        4.6383084631       -1.5897497622
 H          2.5600115534        3.7957030152       -1.5894453815
 H          1.7513031529        4.7085688672       -0.6620919610
 O          4.0429311339       -3.1022799282       -2.8655854432
 H          4.6228455111       -2.3366638237       -2.9927018111
 H          3.1708560551       -2.8351540765       -3.1987349249
 O          7.1194048027        1.2489989691       -3.0067579510
 H          6.6340257997        1.9093596540       -2.4905438584
 H          7.9674800994        1.1592463787       -2.5261207866
 O          6.0135239254        2.7833203211       -0.9567892632
 H          5.0431084555        2.7288779541       -1.1114936079
 H          6.1118574386        3.5366932055       -0.3549944215
 O         -3.3105767207        3.1113175088        3.5929628154
 H         -3.0693313210        2.2270304664        3.2782047602
 H         -2.5742504484        3.4081767043        4.1340645814
 O         -2.5840119538       -5.0886067807       -3.3862806920
 H         -2.8824981732       -5.3172752675       -2.4963218782
 H         -1.6193733835       -5.0245765457       -3.3327127436
 O         -1.9334455594        2.6379234968        0.8407677607
 H         -2.4371957091        1.9682961124        1.3312687476
 H         -2.2651758866        2.6388897140       -0.0779713069
 O         -1.3166857315       -0.8315559453        0.4706057697
 H         -0.4264646135       -0.9857057641        0.7961151263
 H         -1.7755731664       -1.6871142432        0.4861951835
 O          0.5319301387        1.6804087847        0.5276057321
 H          0.5998479233        1.1686511098       -0.2973798331
 H         -0.3974984192        1.9906054838        0.6058913209
 O          0.3783627709        0.1243270405       -1.6898624470
 H          0.1625668449        0.5738631617       -2.5077132484
 H         -0.4162107070       -0.3207153509       -1.3698858847
