  600
      -1018.72568984
 O         -2.1793060865        0.3413159811       -0.3603726873
 H         -2.9588075490        0.4612834707        0.2087591589
 H         -1.9022155036        1.2422716456       -0.5925643524
 O          0.6553235469       -2.5990535667        1.9772363056
 H          0.4725120870       -2.2633680034        2.8654595899
 H         -0.0994167431       -2.3788399403        1.4014474659
 O         -4.3387779614       -1.7262358523        0.0056613894
 H         -3.8066659658       -1.5966563347       -0.8112018801
 H         -3.8596948283       -1.2797904709        0.7258438900
 O         -2.8953835792        1.2149181678       -2.8096793160
 H         -1.9323187902        1.2319382628       -2.9356467156
 H         -3.3059826780        1.5962500844       -3.6006881971
 O          1.2505590350       -1.9473365566       -1.1484857009
 H          0.4433112118       -1.7880065485       -0.6166114719
 H          1.5775043564       -2.8058948997       -0.8365971994
 O          0.1535291701       -1.2793362782        6.8351336110
 H         -0.7323688144       -0.8819937025        6.8895142458
 H          0.7248212692       -0.7753370977        7.4349193811
 O         -5.0101277057        3.1670161364        0.0603902609
 H         -4.4459808442        3.9334059119       -0.1268170181
 H         -5.6885084013        3.1311638746       -0.6363711759
 O          2.3575030319       -1.2646954008       -3.6373817209
 H          3.2616218199       -1.5936532052       -3.6859700919
 H          2.0438063629       -1.4223609025       -2.7360979449
 O          2.9460570158        2.7021034790       -1.5434489870
 H          3.5020947589        3.2554194880       -0.9586637964
 H          3.0973965862        1.7734788109       -1.3335159239
 O          3.3746799235        0.0028331212       -1.1961031058
 H          3.7552582481        0.1414028527       -2.0920022415
 H          3.4909021349       -0.9523726291       -1.0355712316
 O          3.3908527156        0.4902440806       -5.9631404625
 H          3.7527859240        0.3250083378       -5.0663921738
 H          3.2539036790       -0.3514274981       -6.4084388002
 O          6.9251212747        2.6110123897        2.9687684382
 H          7.8081545014        2.3094209620        2.7340607300
 H          6.3596954151        1.8013942062        2.9704906291
 O         -1.6532676272        2.9723278991       -0.6149030539
 H         -1.5291051004        3.3913468473        0.2532065114
 H         -0.8144302594        3.0797678859       -1.1057497789
 O         -1.1863313337        1.0578228576       -5.8280812647
 H         -0.3916567905        0.5002153411       -5.7699832785
 H         -1.0529905344        1.8518359930       -5.2637794466
 O          6.5308354717       -0.2755719441       -1.6663013813
 H          7.2813310521        0.2477095653       -2.0093475193
 H          6.6427524333       -1.1756700514       -1.9861264457
 O          5.2803790109       -3.5347275933        1.3851695980
 H          5.8594624354       -3.4962421176        2.1628694692
 H          4.3955005122       -3.7743934177        1.6895903473
 O         -0.7978977198        4.8482705854       -6.4582195444
 H         -0.1003625729        4.3043719762       -6.8787393107
 H         -1.6387816585        4.5072749412       -6.8164941028
 O          1.9582155920        0.2648113213        3.0189970784
 H          1.7566572010       -0.4682031109        3.6399398083
 H          2.5272590314       -0.1111522631        2.3252441722
 O          2.3070208782       -2.4449646921        9.0190519482
 H          1.5829287000       -2.9985472485        8.6946563982
 H          1.9726820732       -1.5386588030        9.0436731126
 O         -3.5421624842        5.4680924178        0.1736031007
 H         -4.1708079583        6.1536169448        0.4709905768
 H         -3.0701190147        5.8667946337       -0.5682687261
 O         -2.3413386900        1.9819330258        2.9150887637
 H         -1.3963490667        2.1884041082        2.8554525858
 H         -2.8175954730        2.8257354112        2.9090530889
 O          1.7799966426       -4.4599794147       -0.2028154504
 H          1.2981567972       -4.7168474224       -1.0117818883
 H          1.1675999831       -4.6691153502        0.5305108724
 O         -2.6867061834       -1.1266052270        2.1906117846
 H         -1.9337070588       -0.5686703911        1.9310597634
 H         -2.3563017631       -2.0436286891        2.1645509802
 O          4.8603676771       -2.6080178795       -3.6909556318
 H          5.6018012230       -2.7416944461       -3.0872116827
 H          5.0868561827       -3.0585961128       -4.5325303703
 O         -0.1259505044       -5.9666255495       -5.5825208099
 H         -0.7443275876       -6.5943317009       -5.1474843271
 H          0.6770660545       -6.4607921448       -5.7683098548
 O          2.7122531553       -1.7643712411       -7.5288225570
 H          2.7064938706       -2.6942319936       -7.2451474251
 H          2.0570042568       -1.7158839337       -8.2354780567
 O          2.6926695994        5.5935079851       -2.2631684918
 H          2.9517365780        6.5158725960       -2.1349337525
 H          2.4133445959        5.2793344327       -1.3840753553
 O          3.9527951324       -2.5685460087       -0.8170180308
 H          3.4674395806       -3.2332299470       -1.3286195393
 H          4.9030869965       -2.7253657878       -0.9667562575
 O          4.4824907715        0.5208391248       -3.5299882003
 H          4.8254741508        1.4017624894       -3.2970223330
 H          5.2572298033       -0.0319496936       -3.7436670084
 O          3.4784741348        4.3470054509        2.4801148094
 H          2.5657480603        4.6812367870        2.6014142280
 H          3.5207850533        3.4700393790        2.9309919853
 O          0.4850459674        3.4877434672       -2.1053591866
 H          1.3708203798        3.1260319782       -1.9038189816
 H          0.5942378714        4.4388628414       -2.1916420237
 O         -1.6852726842        2.2155822004        5.6671656425
 H         -1.6871924918        2.9740954260        5.0596661007
 H         -1.5074512649        1.4182099227        5.1295803236
 O         -4.1648325132        0.9468637175        1.3267026789
 H         -4.4981229806        1.7114242362        0.8207767525
 H         -3.4672462342        1.2759569572        1.9307696203
 O          0.0500403232       -5.3195850908        1.6398377011
 H         -0.7017711335       -4.6895162600        1.5548492888
 H          0.2346196064       -5.3081164648        2.5931848802
 O         -0.3850205336        0.2123668126        1.7733643626
 H          0.5165872990        0.3008196535        2.1322115707
 H         -0.3150853383        0.4104339705        0.8266787024
 O         -3.5302082915       -0.1126277066        4.5397745757
 H         -3.6557846649        0.8473304233        4.4317441432
 H         -3.2372915833       -0.4522714524        3.6658374822
 O          3.4803903144        8.1012075229       -1.2989413663
 H          3.1312954222        7.9856996682       -0.4036730963
 H          4.3871199028        7.7651181832       -1.2377846130
 O         -6.8729407801       -1.8671998780       -1.0131730651
 H         -5.9922021498       -1.5856766310       -0.7052529198
 H         -7.3952856646       -1.0751617853       -1.2352228747
 O          7.1407248508        2.0018461729       -4.7912164770
 H          6.6855175271        2.2993458060       -3.9744330353
 H          6.5478488615        2.3261923230       -5.4969576198
 O          5.5941948991       -1.6428580284       -7.0071686183
 H          5.5985507221       -2.5741314430       -6.7415528049
 H          4.7228051159       -1.4827126542       -7.3872935934
 O         -0.2021346730        0.7647118096       -3.0724563037
 H         -0.2485315911       -0.1898637527       -3.2718777905
 H          0.4517966216        1.1610271050       -3.6772199999
 O         -5.4398926480        7.2599907041        1.0364932299
 H         -5.5692348797        6.9612390189        1.9549136009
 H         -6.1598253255        6.8738461905        0.5132925851
 O          3.8528411920        1.3389660756        1.1040193492
 H          3.6586608955        0.6864924936        0.4101378767
 H          3.0560701581        1.9003850544        1.1856157784
 O         -0.4542247343        8.9389330446        0.1185551443
 H         -1.3901443452        9.1621868484        0.2259245925
 H         -0.2682882193        9.0063580614       -0.8376521390
 O         -3.0875298474       -0.5769976309       -5.1026119514
 H         -2.6063423730       -1.3914096334       -5.3581088203
 H         -2.4199271201        0.1344906903       -5.2138032046
 O          5.2093111865       -6.4044989919       -4.4096957093
 H          4.6969150629       -6.5596986681       -3.5967908147
 H          6.1015878078       -6.1607821940       -4.0932225437
 O         -0.5029552002       -1.9127175772       -3.1898163313
 H          0.0912948169       -2.0187985430       -2.4238192919
 H         -1.4156217667       -1.8617095424       -2.8323665455
 O         -2.8369020222       -6.5917138071        0.8777241877
 H         -3.5422642158       -6.4671865353        1.5269897713
 H         -2.1060059715       -6.9678247743        1.3879678697
 O         -5.2415065087       -5.1295147370        4.8399023169
 H         -4.8119949251       -4.3275550882        4.4631769583
 H         -4.6436387784       -5.4306419934        5.5345913188
 O         -7.9784108098        4.2088740574        1.3747654039
 H         -7.6011825377        4.7979085895        0.6923782688
 H         -8.4956045304        3.5432769830        0.8888015688
 O         -8.0493309655       -0.4753879405        3.8730887446
 H         -8.1456626176       -1.3099073108        4.3407427366
 H         -7.1163925489       -0.4736772605        3.5578197498
 O         -1.4595237444       -2.4634337028       -5.9320761576
 H         -0.6334377496       -1.9612614907       -5.7716358724
 H         -1.4887000217       -3.2071048122       -5.3103418588
 O          1.3868697969        1.0934925417        5.5638129292
 H          1.0984993900        1.5762068739        6.3526435490
 H          0.6393424469        0.5148374245        5.3129429842
 O          5.8034174260        3.9305488846        5.1203443512
 H          6.0789908241        3.5448050763        4.2713869922
 H          4.8378195228        3.9632574154        5.1496130083
 O         -5.3808181228        6.0805028213        3.5072962038
 H         -6.2782926805        5.7704872553        3.7430413291
 H         -4.9198175652        5.2975524096        3.1135352067
 O         -0.0596813002       -4.9341205215       -2.1684443979
 H         -0.7979618202       -4.9254436601       -1.5290677117
 H          0.1694446511       -5.8481420576       -2.3998269801
 O          8.6431819766       -2.5975370844        0.1091401146
 H          8.5633328436       -1.9718075535        0.8533067558
 H          9.1642755861       -2.1391924674       -0.5809169665
 O         -7.1352174984       -3.0559579384        4.6999734226
 H         -6.7613847779       -3.9269876392        4.8856626114
 H         -6.5200441186       -2.4186106062        5.1131301796
 O         -2.4734556607       -0.4987422353        7.0205760847
 H         -2.7443904447       -0.3770800318        6.0874240070
 H         -2.7517993215        0.3198023528        7.4717347455
 O          6.1369868505        1.8975107622       -0.0371751457
 H          5.3170359528        1.7789614018        0.5024211571
 H          6.1952819727        1.0868521415       -0.5615950635
 O          1.2912488930       -1.8267415738        4.5145142810
 H          0.7964848823       -1.6157195234        5.3347531192
 H          1.9955606008       -2.4240087566        4.7940043153
 O         -2.7591929075       -1.7002188910       -8.1681656133
 H         -3.6528475829       -1.9458261809       -7.8840199193
 H         -2.1901948310       -2.0223473407       -7.4432818672
 O         -4.5202568855        2.4351674885        4.7285587581
 H         -5.0709260685        2.5039549271        3.9343489574
 H         -5.0830326665        2.0496931860        5.4340412289
 O          0.1337091212       -2.0100811063       -8.5284030434
 H         -0.6794158360       -1.7923188481       -8.9922388747
 H         -0.0792946671       -2.8426861789       -8.0708246760
 O          8.5972953959        1.6316040636        0.9984560571
 H          9.2210646787        1.9176287236        0.3317807487
 H          7.7030558326        1.7851702259        0.6118955874
 O          3.1229766440        7.1949906721        1.3185291861
 H          2.4662791924        7.6302076123        1.8782099869
 H          3.9208446688        7.0524137019        1.8401599379
 O          0.4786408681       -4.1571138632        7.5808562100
 H          0.2072334475       -5.0683021231        7.4043002575
 H          1.1483705883       -3.9652067191        6.8953640189
 O         -6.2668583934        2.5546265299        2.5822462263
 H         -6.8109045298        3.2504029074        2.1572931955
 H         -6.3201400372        1.8040495528        1.9568743080
 O          3.4791779626        3.5254770997       -4.0137718502
 H          3.6234634033        4.4838614810       -3.9959634909
 H          3.3990925100        3.2441080184       -3.0803435770
 O         -3.8364080304        5.6262012336       -5.1239052834
 H         -3.4686695935        5.1684869356       -4.3558403146
 H         -3.5053169800        5.1707387430       -5.9062857760
 O          8.1084803154       -0.7975099061        2.1035811517
 H          8.4828238916        0.0356704577        1.7698007432
 H          7.1906505238       -0.8081996462        1.7269514584
 O         -5.1611232914        5.4428791478       -2.2672261756
 H         -4.4896767239        4.7423606136       -2.3318950800
 H         -4.6210974406        6.2487150032       -2.1693016361
 O          1.5851697243        0.2586731810        8.5736393855
 H          2.4341334718        0.6885217973        8.3804219255
 H          0.9270054060        0.9674074541        8.5009409144
 O          0.1250191978       -4.6106154926        4.2641708994
 H          0.9365063184       -4.2438550419        4.6355977985
 H         -0.5427892685       -3.8891921782        4.2937020992
 O          0.6091732465        4.4049344810        5.5110792116
 H          0.3775904058        3.7285156581        4.8358991698
 H         -0.1856883601        4.5232617577        6.0509731687
 O         -4.7327947664       -4.2628400305       -1.8249642973
 H         -5.6781661798       -4.1617182810       -1.6085895189
 H         -4.6132761088       -5.2221367412       -1.9487831683
 O          2.9204448266       -4.1522220414       -2.7679415313
 H          2.1168749879       -4.0277969093       -3.3204069500
 H          3.6328922915       -3.6441069569       -3.2110592359
 O         -4.8693583286        0.4634665892       -6.7609804270
 H         -4.2160678610       -0.0481449227       -6.2259192723
 H         -4.3666039240        0.7797532920       -7.5219697272
 O         -1.8449651517       -7.9894898200       -1.6451798349
 H         -1.1085344631       -7.6007511029       -1.1082292806
 H         -2.0698232313       -8.8173229505       -1.2227758131
 O         -5.6333921140       -0.8045445715        2.7471377797
 H         -6.0467638724       -1.4287060881        2.1287535256
 H         -5.1196974269       -0.1620637209        2.2105662488
 O         -4.1777436694        2.3576050623       -4.9621738634
 H         -4.5839273826        1.6767213936       -5.5356596823
 H         -4.8898704290        2.9854851636       -4.7292016715
 O          6.2961479749       -5.5835648239       -0.6785733384
 H          6.8970853226       -5.4674137237        0.0834457520
 H          5.4106354804       -5.7098181521       -0.3005324352
 O         -6.0519975056        1.3345925429        6.5903061567
 H         -5.9865337413        0.3750851950        6.4318733471
 H         -6.8458107372        1.6388199156        6.1049038049
 O          1.5271741404        2.6750033070        1.1196138800
 H          1.5856402905        3.5689117366        0.7318405989
 H          1.1429161711        2.0829518401        0.4382581395
 O          0.0879652410        2.3356160881        7.6178832411
 H          0.0714958787        3.2422579776        7.9248519938
 H         -0.6496280270        2.2689165059        6.9589296012
 O          0.7579263041        8.0200631383        2.4905470975
 H          0.1204295127        8.0000964326        3.2185574366
 H          0.3170889364        8.4110005065        1.7199249281
 O         -2.4685651610        0.9829014154       -8.1498842403
 H         -2.5879266397        0.0190035423       -8.2835613458
 H         -2.0154835061        1.0540922944       -7.2795925885
 O         -4.2337507259       -2.9557065756        3.6641168908
 H         -4.6874995281       -2.1034761688        3.5029777478
 H         -4.2348154796       -3.3998648749        2.8007926250
 O         -4.0072803943        4.9137587181        5.5774881797
 H         -4.6013523211        5.4920952839        5.0741818855
 H         -4.2517504448        3.9904230926        5.3360039415
 O         -7.2294381565        1.6906670607       -4.0091845191
 H         -7.0546934254        2.4416428087       -4.5857103213
 H         -6.5102454737        1.0378694680       -4.1416417243
 O         -2.2537022906       -4.5026343549       -0.7236669969
 H         -2.4593612584       -5.2842919349       -0.1730435663
 H         -3.0784291671       -4.2554945943       -1.1718329986
 O          3.1025416594        3.6073630381        6.0330897525
 H          2.1911199280        3.9508930094        5.9453829969
 H          3.1496884776        3.0874521970        6.8465382140
 O          7.1963094703       -3.1844538776        3.3204648323
 H          7.0385961592       -3.0592728197        4.2735964508
 H          7.6269398712       -2.3792793232        3.0065104665
 O          0.9538482754       -3.7380817507       -4.4797398264
 H          0.3765983825       -3.0524503956       -4.0838483021
 H          0.4074943890       -4.5182661530       -4.6749595967
 O         -1.8392405656       -7.6312085595       -4.4012258308
 H         -1.7770481739       -7.7577975492       -3.4424057508
 H         -2.7104687603       -7.2446708652       -4.5770356996
 O         -1.0819847902       -2.0243179120       -0.0022723042
 H         -1.5844573821       -2.7726961347       -0.3476108617
 H         -1.5445073478       -1.1870469939       -0.2236080087
 O         -5.4344851708       -1.2594821305        5.9058482489
 H         -4.7760471181       -0.8592063262        5.2768725328
 H         -4.9097704689       -1.6624293865        6.5990694817
 O         -3.1656395371        7.2314234955       -1.8630495944
 H         -2.9299408370        7.6055001377       -2.7365481840
 H         -3.1346117318        7.9386865470       -1.2007554052
 O          2.7875548551       -6.2888667960        4.1951545919
 H          3.6948514399       -6.5967591179        4.1500538338
 H          2.7266617491       -5.5688425039        3.5195985302
 O          2.7601098740       -4.2121149763        2.5763738471
 H          1.9163009876       -3.8327967379        2.2731729190
 H          3.1237862693       -3.5552665425        3.1932091542
 O          3.0101804106       -1.5141052434        1.4336950041
 H          2.1114395559       -1.8966885747        1.5080753183
 H          3.4078576279       -1.9344853440        0.6525890493
 O          3.7994321102       -6.0721670142        0.4447523739
 H          4.2436092669       -5.9715011037        1.3152361029
 H          3.1268159680       -5.3564763588        0.3345297326
 O         -4.0580182355       -6.0357059823       -4.6263407779
 H         -3.9000664240       -5.6945371580       -5.5347121569
 H         -4.9608344720       -5.7220875517       -4.4139199882
 O          5.0472841746       -4.5639146330        4.6957486969
 H          4.7955277913       -3.6707496637        4.3904350201
 H          5.7556630892       -4.4199125827        5.3270437111
 O         -0.8242175656       -4.4947571197       -7.6989138315
 H         -0.7599485119       -5.1071308273       -8.4305679642
 H         -0.5589366363       -4.9876451887       -6.8924367196
 O          1.0522352077        5.3436883979        2.9100959984
 H          0.9506429326        6.2922391874        2.7242292331
 H          0.8937506475        5.2160798309        3.8578121998
 O         -1.6709673878       -2.6269429435        4.6058105305
 H         -2.5619219894       -2.7119367225        4.2162258947
 H         -1.7845709885       -2.8129382574        5.5585849492
 O          8.5511884346        1.3494168815       -2.4217620296
 H          8.4268946762        2.2107219091       -1.9756036635
 H          8.4271754619        1.5352148721       -3.3603893004
 O         -2.9295353225       -5.6209131946        6.4723575679
 H         -2.7409037591       -4.7350608582        6.8287708612
 H         -2.0964127133       -6.1074448597        6.5663152165
 O          1.6846853759        5.1647085611        0.1622343214
 H          0.7862895949        5.5580562978        0.0897286074
 H          2.2344359091        5.8167740934        0.6263177642
 O          3.0228558266        4.7498006404       -6.7577002735
 H          3.7816461191        4.1443409397       -6.7347718312
 H          2.2953573806        4.2151918017       -7.1209964167
 O         -1.0420225856        3.2365320704       -4.3572273771
 H         -0.8078543697        3.9183653159       -5.0234851280
 H         -0.3298646436        3.2216584525       -3.6912635285
 O         -4.2392604233       -2.9206751089       -4.0907873835
 H         -3.3878416161       -3.3670307543       -4.2380714742
 H         -4.6484641067       -3.4249624319       -3.3621515525
 O         -3.1635456269        8.7337747894        0.4500541337
 H         -4.1248420155        8.7535350013        0.5055458593
 H         -2.9188189783        8.0861137481        1.1474812575
 O         -1.9465843662       -4.3441345558       -4.0443015107
 H         -1.2768488438       -4.5061574011       -3.3531231902
 H         -2.5036777787       -5.1293956571       -4.1403992229
 O          6.6053789411       -0.5832959282       -4.7479953545
 H          6.9245400517        0.3419059622       -4.8662645233
 H          6.2401582335       -0.8711623955       -5.6088409508
 O         -0.8130808275        5.9793407247       -2.8288221311
 H         -0.2507185403        5.7387286118       -3.5880641144
 H         -1.6267819035        5.4367162770       -2.8652270770
 O         -3.9681006196        4.1273745108        2.4460739499
 H         -4.6481467937        3.5652298875        2.0390518549
 H         -3.5331110119        4.5900937120        1.7079687618
 O         -0.6767641977        6.2790670909       -0.1628664162
 H         -0.7961857995        6.1728162557       -1.1228244343
 H         -0.6121185633        7.2369622299        0.0064470377
 O          0.2309810188        0.9129206934       -8.7497140820
 H          0.3717696237       -0.0131747766       -8.5267403422
 H         -0.7329085364        1.0432364029       -8.7523397187
 O          5.7389428633        1.5045601111        6.3077010405
 H          6.4854542257        0.9800997048        5.9865733300
 H          5.8446156442        2.4078374974        5.9324105887
 O          2.1715864628        8.1623165755       -3.7543019508
 H          1.2797726543        8.3622381426       -3.4250736556
 H          2.7471418756        8.4037626677       -3.0173153093
 O          3.5325034893        2.1540761421        3.8765088259
 H          3.2913040360        2.5466926177        4.7397677748
 H          2.8194867856        1.5300936464        3.6123696716
 O         -2.0186603884       -3.7387598237        1.9711959519
 H         -2.7552498560       -3.9340557289        1.3726023804
 H         -2.1881621290       -4.3005817336        2.7573237607
 O         -2.9530516877       -1.4461677653       -2.2544531943
 H         -2.9363350870       -0.4710618752       -2.3753769895
 H         -3.5003705951       -1.8167683323       -2.9708653444
 O          4.0466813838        6.2149395550       -4.6656347318
 H          3.7808176878        5.9078657442       -5.5448765744
 H          3.4265577931        6.9173992541       -4.4206848808
 O          2.4560011867       -3.9637261936        5.7089152285
 H          2.8285893570       -4.8135485780        5.4291642885
 H          3.1663858673       -3.4901237570        6.2075829306
 O          5.3768620106       -6.1804479739        2.5968505474
 H          6.2605370452       -6.0726596428        2.2336482391
 H          5.3159305641       -5.5544278686        3.3499999425
 O          0.2038867828       -7.1556378904       -0.2743204273
 H          0.0559128764       -6.5262148775        0.4591936724
 H          0.9420567804       -7.7106738557        0.0055860671
 O         -7.8321425420        2.1041173380        4.7197053559
 H         -8.2055751404        1.2282707789        4.5350084911
 H         -7.2373667705        2.2634942030        3.9537590766
 O         -1.1899332709        4.4038353397        1.6575676411
 H         -1.3822378188        5.2000670467        1.1365751600
 H         -0.2801141294        4.5211356161        1.9850398399
 O          5.5872951459        6.5145515794       -0.7016010446
 H          5.0142756151        5.7524928579       -0.4413100255
 H          6.3393034827        6.4933142883       -0.1088023468
 O          5.4225557149        0.4465788933        3.1726781155
 H          5.2425240995        0.0749369584        2.2931910510
 H          4.6617847955        1.0127652830        3.4154947505
 O          0.3027353902        2.6173963357        3.4971004513
 H          0.7542418468        1.9296211047        4.0055498710
 H          0.7625653294        2.6650590376        2.6343472099
 O         -1.7333124330        4.6492798823        4.2506313525
 H         -2.6517267311        4.7834021769        4.5528746763
 H         -1.7283010759        4.5495197798        3.2765351661
 O          6.1318996610        5.3213694833       -3.0595071564
 H          5.5299183545        5.6530584097       -3.7443971290
 H          5.9279215545        5.8525720771       -2.2669128124
 O         -5.4732124596       -0.2865216565       -3.9149406027
 H         -4.5735435554       -0.4220264882       -4.2639922049
 H         -5.9339653278       -1.1433465747       -3.9475974034
 O         -8.4205832166        0.1059019332       -2.0624977117
 H         -8.8041335758        0.7615842862       -1.4688009851
 H         -8.0701018434        0.5991389137       -2.8167400993
 O          8.0621837324       -2.5782400839       -3.8515930129
 H          7.4937609164       -1.8384098660       -4.1832167499
 H          8.5685475721       -2.8805339601       -4.6051655033
 O          0.7112015974       -0.9019592696       -5.6804860187
 H          1.2766799235       -1.1203936423       -6.4309708523
 H          1.2606207796       -1.0362319459       -4.8789018301
 O          5.3973186337        6.0721924024        2.8808835551
 H          5.7648549889        5.9220830435        3.7551562430
 H          4.6722491042        5.4033905726        2.7850343852
 O          1.1596107620        5.1837842486       -4.4480811655
 H          1.6800139779        5.0719295853       -5.2511891526
 H          1.7922101982        5.3678143396       -3.7270858095
 O          4.4354503329        4.2326061280        0.0286107788
 H          5.3383251841        3.9480835037        0.2461631785
 H          3.9642096465        4.2730453512        0.8898604645
 O         -7.0612469084       -2.4386256540       -3.6123481882
 H         -6.9511926168       -2.3452356114       -2.6348956263
 H         -7.9545595318       -2.1479249779       -3.7945265550
 O          0.9805181498        3.0419279086       -7.2432461271
 H          0.7890661863        2.3205468571       -7.8688535493
 H          1.0756170855        2.6158189277       -6.3618996197
 O          4.1266899813       -2.4456543404        7.0628716048
 H          3.5992834808       -2.4550609062        7.8908314516
 H          3.9362910472       -1.5861277643        6.6303987494
 O          6.5007178729       -3.0573598774       -1.4259673222
 H          7.2639178064       -2.8333267420       -0.8500873142
 H          6.3585560968       -4.0103386339       -1.2348478101
 O          3.7089952005       -0.2342201427        5.6339751086
 H          2.8499475546        0.2398398885        5.6287635323
 H          4.4048595440        0.4292987478        5.7706812186
 O         -8.6772134210       -0.9967508950        1.2643026801
 H         -8.2524413926       -1.8661069225        1.2274263616
 H         -8.6948669772       -0.7678058111        2.2110618225
 O          2.5339274732       -4.2644825917       -6.4923396515
 H          1.9642284957       -3.9284211414       -5.7631052202
 H          2.5115121323       -5.2299196807       -6.3808675929
 O          1.2380485136       -8.1995186638        3.1661122355
 H          1.7544450244       -7.4937735036        3.6102319341
 H          1.6561269969       -8.3157572606        2.2976272531
 O         -3.0930762312        3.6110603458       -7.0568594472
 H         -2.9252547157        2.9381320507       -7.7243144604
 H         -3.3725531843        3.1156065385       -6.2525534654
 O          1.0950899462       -7.2544468687       -3.1080187700
 H          0.7243626315       -8.0829417497       -2.8091172793
 H          1.9576693416       -7.1249443294       -2.6509653005
 O          2.5939400056       -6.8249770087       -5.4908879920
 H          2.1534720280       -6.9749849190       -4.6384013269
 H          3.5410646404       -6.8348984397       -5.2997622769
 O          5.7287418345        2.7441945130       -2.6273888881
 H          5.9316422534        2.6112927823       -1.6876591538
 H          5.7678552281        3.7100086869       -2.7997873206
 O         -5.8914238878       -6.2156422286        0.2963379140
 H         -5.6762176490       -6.6039928846        1.1598331781
 H         -5.3641621081       -6.6683458760       -0.3771020345
 O          8.1107131187        3.8172506793       -1.3169355364
 H          7.7399977972        4.0832947381       -0.4620707606
 H          7.6987047883        4.3778076939       -1.9841783058
 O         -2.5706092227       -5.5236969528        3.7810858613
 H         -2.6691528583       -5.5344950669        4.7468463044
 H         -2.0745964402       -6.3158538549        3.5289515664
 O          0.7654318091        0.8216192107       -0.6169232483
 H          0.3179822694        0.8899202759       -1.4870776060
 H          1.5612176567        0.2941025998       -0.7819924119
 O         -2.6207356139        8.0208699288       -4.3627248835
 H         -1.7646410824        7.8599878092       -4.8124563805
 H         -3.2156098035        7.3631417423       -4.7531165333
 O          7.4078148206       -5.3471150571       -3.2705377996
 H          7.5833831070       -4.3959585956       -3.3122857416
 H          7.1858021255       -5.5493682607       -2.3518148258
 O         -3.5333527734       -4.8450919542       -6.9625233398
 H         -4.1094126090       -4.0724929963       -7.0106154941
 H         -2.6384695947       -4.5419753279       -7.1838590557
 O         -4.3296297102       -6.9396840773       -1.9207157385
 H         -3.4188932690       -7.2101688425       -1.6979310776
 H         -4.4202404375       -7.0260628869       -2.8753909323
 O         -7.3750840150       -4.5136736920       -1.2391454603
 H         -7.1768322812       -5.1147764272       -0.5094858692
 H         -7.4898670721       -3.6253555573       -0.8695166305
 O          6.6753974909       -2.6538640470        5.9679240373
 H          6.9368186612       -1.7379445915        5.7645817289
 H          5.8409677612       -2.5872575025        6.4608561132
 O          7.3250513893       -0.2516492420        4.8512768694
 H          8.0650297834       -0.3701950369        4.2482799352
 H          6.5539823563       -0.1083267793        4.2564210772
 O         -4.9884000575       -6.8745183646        2.7879457994
 H         -5.2420128654       -7.6872240042        3.2221085010
 H         -5.0369259542       -6.1730480854        3.4802937744
 O         -9.0079725955        2.0995140452       -0.0419667861
 H         -9.7093741501        1.6255955204        0.4059418550
 H         -8.1532552429        1.6431957398        0.2411221914
 O          9.6159696492       -1.2469483800       -1.9834419577
 H          9.4000360693       -0.3129805382       -2.1067283606
 H          9.1265111200       -1.7411122545       -2.6652174392
 O         -7.0021452715        3.2270760995       -1.7826231072
 H         -6.9814618402        2.6145035264       -2.5416399896
 H         -7.8121660377        3.0277834832       -1.3073109004
 O         -0.3437647459        8.6096766623       -2.5942372910
 H         -0.9366846868        9.0697280359       -3.1923758102
 H         -0.5771860644        7.6592314881       -2.6911081346
 O          3.5002003953       -6.6136272291       -2.2519694495
 H          3.2804672983       -5.6604416099       -2.4474338133
 H          3.7410886087       -6.6191490386       -1.3188919688
 O         -6.5263956094       -5.1331730078       -3.9204696598
 H         -6.6413541291       -4.1823024049       -4.0833997253
 H         -6.9520889279       -5.2783662556       -3.0675134862
 O          5.1147136342       -4.0928353521       -5.8558925879
 H          5.2701131779       -4.9590364159       -5.4357380640
 H          4.1791292616       -4.1238901640       -6.1529090092
 O          4.1134970120       -2.1769747943        3.7705923620
 H          3.8931684838       -1.8055017771        2.8900685148
 H          4.0439749678       -1.4417615392        4.4039022628
 O         -1.7517563028        4.6161833550        7.2447227771
 H         -2.4951427339        4.8950874213        6.6894425688
 H         -2.1210968432        3.9031329249        7.7759384673
 O         -7.7788309580        4.9616105377        4.0275383786
 H         -8.0600369864        4.7780929361        3.1181035815
 H         -7.9030838742        4.1391209925        4.5156464160
 O         -4.5878389836       -4.0198036286        1.1480015836
 H         -4.9823716715       -4.7628460434        0.6585230033
 H         -4.5420538392       -3.2267622872        0.5521899113
 O         -6.1022762009        4.2057116731       -4.5645561061
 H         -6.1605631422        4.4530171187       -3.6288998268
 H         -5.5314557449        4.8894524329       -4.9556028912
 O         -2.7260537372        7.0521638620        2.5041631103
 H         -3.5894400432        6.9103818696        2.9036393932
 H         -2.1067481027        7.2278718434        3.2261351145
 O         -5.0039480047       -2.4332584763       -6.6634585872
 H         -5.4627686899       -1.5887238925       -6.7185577886
 H         -4.8121610630       -2.5750501135       -5.7146025016
 O         -2.8338214616        4.1730592398       -2.7045059872
 H         -2.5815655241        3.7305855305       -1.8649688665
 H         -2.3564913684        3.6474443879       -3.3836805081
 O         -5.2358205094        0.6074375883       -1.4086035310
 H         -5.4213241839        0.2681167814       -2.3021239423
 H         -4.3733354238        1.0312999181       -1.4820059274
 O         -6.8883690832        0.8273456783        0.6420302560
 H         -6.2625607702        0.7163241944       -0.1088246897
 H         -7.4108928964        0.0050432099        0.7727627981
 O         -0.2996150287        7.3984780607       -5.5618900476
 H         -0.4280950164        6.5095406722       -5.9374911171
 H          0.5975881351        7.4178372278       -5.2163049319
 O          3.7923507278        1.8573222596        8.1144521088
 H          4.5417526793        1.6349462063        7.5251738444
 H          4.1747111773        2.1853161649        8.9273023460
 O         -7.1184808507        5.8519196020       -0.5734577429
 H         -6.3910075580        5.5338578441       -1.1691968114
 H         -7.8418368265        6.0887256568       -1.1518201066
 O          1.4697987082        1.9495819769       -4.8455975225
 H          2.0685188396        2.6366941138       -4.4927088476
 H          2.0714309970        1.2933131932       -5.2495995561
 O         -3.4266779309        1.9669950751        7.6865110817
 H         -4.3698432078        1.8912593720        7.5026651276
 H         -2.9912527499        2.1712821432        6.8351811325
 O         -2.0286490159       -3.1752620621        7.2071993767
 H         -2.2126575867       -2.2484332553        7.4264713053
 H         -1.0934425398       -3.3500368089        7.4430821269
 O         -7.0077366735       -3.0447299060        1.9499918056
 H         -7.1389038520       -3.1328041665        2.9113261954
 H         -6.2059817253       -3.5478351626        1.7273226690
 O          2.4925642376       -8.3354916091        0.7047665018
 H          2.9938552890       -7.4800452804        0.6365193407
 H          3.1262300652       -9.0352651461        0.5548073774
 O         -0.8077193995       -0.0306435864        4.4650948279
 H         -1.1233083730       -0.9507111957        4.5327643411
 H         -0.8279206586        0.1923307176        3.5236566516
 O         -0.3138343544       -6.4416476950        6.1224293783
 H         -0.1943579208       -5.8006050679        5.3755491839
 H          0.2344702814       -7.1945144448        5.9033126616
 O          6.8818311661        4.5774409659        1.1246694830
 H          6.9490695478        3.7992411400        1.7095136619
 H          6.4795129398        5.2569027082        1.6968273404
 O          7.9640835183       -4.9794213348        1.3842889500
 H          7.7381818087       -4.4784010155        2.1850939634
 H          8.4145778642       -4.3199073520        0.8337599705
 O          5.7804915168       -0.9682766018        0.8964921368
 H          5.9452168621       -0.8124366315       -0.0448938444
 H          5.5400398494       -1.9155757205        0.9937645719
 O         -0.8947528373        7.1139460686        4.5589645019
 H         -1.0864975683        6.1367448469        4.4995844483
 H         -0.9127935166        7.3286161027        5.4901017838
 O          4.9109843060        2.7495072334       -6.1320855640
 H          4.4443147282        1.9294163134       -6.3591500761
 H          4.4951870415        3.0244596055       -5.2870244221
 O         -1.3143636435       -7.7913917730        2.8565360982
 H         -1.6852213674       -8.6039373549        3.1957351631
 H         -0.3302977891       -7.8757123252        2.9539588825
