  117
       -193.22631639
 H         -1.2181231934       -0.8109345297        1.0339389499
 C         -1.4317956986        0.2211404468        0.7484394909
 H         -1.9443416493        0.7114756525        1.5739904181
 C         -2.3304170970        0.2573208964       -0.4833145126
 H         -2.5527806194        1.2923023110       -0.7262828195
 H         -3.2528112142       -0.2760533287       -0.2729424913
 O         -0.2420144388        0.9386987999        0.5222890295
 H          0.3736490731        0.3888807941       -0.0115522377
 N         -1.6453162695       -0.3484267977       -1.6330587860
 H         -1.3348910513       -1.3233832521       -1.4188690332
 H         -0.8177762847        0.2367073572       -1.8990787942
 H         -2.2722425090       -0.3717674947       -2.4798774094
 O          2.8133856418        1.8756533624        0.8007651329
 H          2.4335438528        0.9883374905        0.9966943309
 H          2.1341441302        2.5123167716        1.0958884353
 O         -0.2363547772        3.7462709641       -0.9156337730
 H         -1.2027693984        3.7051895491       -0.9464428705
 H          0.0198012300        3.7278246619        0.0174563785
 O          0.1018930547        1.5142830568       -2.4969314873
 H          0.2044626221        2.2642952311       -1.8860393349
 H          0.9764235893        1.2851871033       -2.8581686501
 O         -3.1668046863        2.9458621973        1.5591250394
 H         -3.0649755534        3.1683975262        0.6269736952
 H         -3.9330218414        2.3525846487        1.6168264223
 O         -5.2955868479        1.4706630388       -1.0433213164
 H         -4.6241284337        2.1459159518       -1.2144780568
 H         -5.3561053823        1.3785709048       -0.0783466136
 O          0.2948769903       -1.2682960648       -3.4611543708
 H          0.7891594294       -1.0980679299       -2.6378689149
 H          0.8141114239       -0.8911084334       -4.1702587838
 O          1.9705354053       -1.0404190275        4.9801495632
 H          2.2470000785       -1.3330004513        5.8493337208
 H          2.7565610813       -1.0914153837        4.4066909452
 O          1.8171444101       -0.3673476187        1.8153644314
 H          1.3363031805        0.1751687715        2.4771555546
 H          2.6237301784       -0.6856343361        2.2766841715
 O          5.0824229607        1.3023577747        2.0896367349
 H          5.3957839547        2.0134572836        2.6487291141
 H          4.2510167246        1.6116512754        1.6604062130
 O          0.6137662060        3.1746536877        1.6871144910
 H          0.6865364560        3.1288299244        2.6438444788
 H          0.1760936337        2.3399918056        1.4215466239
 O          0.3462656485       -2.5330732619        1.3684119229
 H          0.9033499826       -1.7281995530        1.4866918865
 H          0.0462024116       -2.7188800327        2.2914167061
 O          4.0358555721       -1.0409433149        3.1208456205
 H          4.5711114425       -0.2764841488        2.8395690563
 H          4.3191886622       -1.7954550894        2.5712858778
 O          1.3808878019       -3.6880838978       -2.0972741835
 H          1.4133592718       -4.4378202076       -2.6916152157
 H          2.0192660739       -3.0226564200       -2.4719272431
 O         -4.2171413541       -1.4509324589        2.0641661314
 H         -4.7254842633       -2.0790803794        2.5811928110
 H         -3.9972023998       -1.9185040363        1.2231782404
 O          2.5293444165        0.7139932065       -3.5250652509
 H          2.8118902061        1.1137824516       -4.3485309695
 H          3.0390325094        1.1871345044       -2.8131576070
 O         -5.2170394275       -0.9999421980       -2.0223128515
 H         -6.1062229386       -1.2590683825       -2.2670695127
 H         -5.2831737533       -0.0772250762       -1.6746916891
 O          2.3062792992       -4.1706388352        0.4854681587
 H          2.0999511573       -4.1126528789       -0.4618189951
 H          1.5665169622       -3.7224628158        0.9395639401
 O         -3.2537665440       -0.4206180054       -3.7805075237
 H         -2.8940357089       -1.2606582015       -4.1231490933
 H         -4.0948340723       -0.6469833298       -3.3429607507
 O         -3.7551722420       -2.6318203609       -0.2677437018
 H         -2.8882402734       -2.8981297935       -0.6005162550
 H         -4.2474179330       -2.2196687347       -0.9954933205
 O         -1.9338568234       -2.7486611236       -3.9002762837
 H         -1.9444244416       -3.4667122849       -3.2659300984
 H         -1.0597954581       -2.3246158119       -3.8271165146
 O          2.0187499827        4.2821318931       -2.4352671425
 H          1.1892447894        4.2315000981       -1.9342392170
 H          2.1538576926        5.2015346607       -2.6638306382
 O         -1.8522293988        2.0848497617        3.7446759739
 H         -2.2302247748        2.4829737468        2.9334334286
 H         -2.1081256882        2.6570944940        4.4693070799
 O         -0.9824409344       -2.9132173895       -0.9526887825
 H         -0.6486210381       -2.8959107940       -0.0336771376
 H         -0.2296544436       -3.2412200750       -1.4814933643
 O          3.9126642818       -1.0119265177       -0.5654912084
 H          4.1765102860       -1.6717271339        0.0981698031
 H          4.6582329234       -0.3696199486       -0.6278742384
 O         -2.2578572486       -0.6915020909        3.9520750192
 H         -2.1859160426        0.2727872533        3.9269947798
 H         -2.9173648185       -0.9446728689        3.2915705835
 O          3.1931945065       -1.9728187827       -2.9591269745
 H          3.6452440602       -1.7538100727       -2.1201903574
 H          2.9690656807       -1.1079007834       -3.3336481488
 O          0.7864920499        1.1731604646        3.7448332750
 H         -0.1638030775        1.3382820589        3.8340854041
 H          1.0403282608        0.5379807281        4.4293213137
 O          4.4933987490       -2.9586706191        1.2597585553
 H          3.6812493777       -3.4805118189        1.0164131927
 H          5.2331882294       -3.5629953494        1.1960772283
 O          3.6615513118        2.2311805484       -1.7099486128
 H          3.2340244353        3.0554536525       -1.9987897141
 H          3.3194796169        2.0670622454       -0.8054661170
 O         -5.1750082344        1.0363789615        1.6751930912
 H         -4.8277871877        0.1300807879        1.8280158781
 H         -5.9343712695        1.1457899050        2.2495640208
 O         -2.3092621571        2.2253568410       -3.5485692697
 H         -2.7397823870        1.4123457737       -3.8476701801
 H         -1.3748109601        1.9997329216       -3.3888311332
 O         -0.2146542924       -2.5125878928        3.9215263771
 H          0.5351997904       -2.0689447365        4.3451996313
 H         -0.9775485692       -1.9193677317        4.0369263839
 O          1.2853388331       -0.7789830525       -0.9361306722
 H          1.0688804083       -1.6141024359       -0.5105993625
 H          2.2544885823       -0.6907875273       -0.8133303267
 O          5.8275051628        0.8051982618       -0.5966293207
 H          5.3652153696        1.5031475167       -1.0799409754
 H          5.8142683380        1.0446800688        0.3416832374
 O         -3.0960764322        3.3559169168       -1.3429661451
 H         -2.8215048390        2.9513997212       -2.2186218801
 H         -3.4772395534        4.2074568785       -1.5648649591
