  219
       -371.63508188
 O          2.8892603823        1.5621805797       -3.3776825808
 H          2.1078034060        2.1225345514       -3.1745854172
 H          3.5827369232        1.8846375137       -2.7659294454
 O          2.1066287244        0.5835863363        2.3889846646
 H          1.1554348029        0.5580525005        2.5636482886
 H          2.2736539410        1.3168018606        1.7609294881
 O          3.7769391794       -1.6324748097        2.4361691635
 H          4.7034403199       -1.3600975748        2.3844364044
 H          3.2449719376       -0.8225650857        2.3791197563
 O          0.7315044592       -1.2899138233        4.4410033724
 H         -0.0083274333       -1.7186517081        4.8958630426
 H          0.8955056651       -0.4396535993        4.9158908382
 O         -2.4709617310        2.0707627935       -4.5248691206
 H         -3.4005207526        1.8304617063       -4.5830523317
 H         -2.3466122318        2.3336895750       -3.5815818731
 O         -3.0403331245        2.3857749405        5.1461493254
 H         -3.4489076337        2.8517482722        5.8746840479
 H         -3.6405698254        2.4965396465        4.3612538821
 O          2.2121394430        4.6011091293       -1.0521876443
 H          3.1426463623        4.8461981316       -1.1453196211
 H          2.2027691320        3.9110575102       -0.3547778994
 O          1.6226168712        0.2845586796       -5.3147073614
 H          2.2038869458        0.7356866359       -4.6658874569
 H          1.6929227861        0.7794564141       -6.1312902058
 O          3.1613775932       -3.0755964001       -3.3319757857
 H          2.4300711519       -3.0188925091       -3.9615383075
 H          2.8001721776       -3.4873772886       -2.5153490424
 O          2.4118775640        2.8608779523        1.0096705723
 H          3.3361769205        3.1150449752        1.2312522904
 H          1.8486541720        3.3840734415        1.6066125711
 O         -1.5490656667       -2.5362815877        5.3722736758
 H         -1.6191747488       -3.2581859717        5.9961239731
 H         -1.7790537014       -2.8952474504        4.4818526374
 O         -3.6883282940        0.5765410708       -0.8803073060
 H         -3.2058451698       -0.1708559154       -1.3089494446
 H         -4.5009661235        0.1837304457       -0.5339497229
 O          6.8086704759        0.7645390266       -2.3262481533
 H          6.2375792276        0.1911830422       -2.8543962292
 H          7.0821104300        0.2454022731       -1.5533058973
 O         -3.0018613895        4.3983318407        1.5430086845
 H         -3.3116088150        4.4951859440        0.6118715466
 H         -2.3000270053        5.0594611253        1.6603920622
 O          1.1436814168        0.9781731026        5.7394457090
 H          0.6110704768        1.7039360870        5.3721772935
 H          2.0649150112        1.2305822246        5.5818358071
 O         -4.8737045250        1.3066824821       -3.1998246967
 H         -5.7883664142        1.4168932237       -2.9165353088
 H         -4.3669555416        1.2067382603       -2.3645544647
 O          5.3534766404       -4.6568180041       -3.5279765958
 H          5.5998524969       -4.8245234028       -4.4375733084
 H          4.4976900536       -4.1809644288       -3.5426520773
 O         -0.4466870570        2.6982313365        4.2776794796
 H         -1.3407975417        2.7539726129        4.6505025978
 H         -0.4750789411        1.9519207956        3.6358878782
 O         -1.4397230231        5.4574287817       -1.9856652051
 H         -2.3853851840        5.4402486654       -1.8108542479
 H         -1.0506248009        4.8205066907       -1.3497036520
 O          0.7581554486        4.3598433882        2.5881126296
 H          0.2975023389        3.8194217769        3.2642765437
 H          0.2056285480        5.1497646081        2.4448776083
 O          1.8108883075       -4.2151482397        2.8184772318
 H          1.3865483683       -3.4223591326        2.4619619155
 H          2.2768511361       -3.8812128697        3.6309437765
 O          6.5581152409       -1.1787329588        2.2297108051
 H          6.8698649801       -1.0768179003        1.3125094814
 H          6.9975878331       -1.9466941743        2.5948818280
 O         -2.4641184737       -0.1763032312        4.4398746588
 H         -2.6103944555        0.6298406362        4.9616023186
 H         -2.2166734463       -0.9048634480        5.0294127175
 O         -5.5784456393        2.4678560186        0.1682377485
 H         -6.2419064764        2.1092109525       -0.4397849537
 H         -6.0197162466        2.7396110515        0.9743745971
 O          4.7799898431        3.8308826182        1.8136845227
 H          4.3172408102        4.2195829233        2.5999023847
 H          5.3030515008        3.0927921867        2.1640969623
 O          3.2501636874        4.4267118948        3.8549774724
 H          3.2709941968        3.5205802608        4.2255691316
 H          2.3566966745        4.5533341639        3.5016742685
 O         -0.6725757171        0.6351770039        2.6124834166
 H         -1.2495406576        0.1895648150        3.2610733497
 H         -1.2615061380        1.0676331471        1.9548571608
 O          4.7529174198        2.2370579115       -1.5715318421
 H          4.8927579018        3.1715933558       -1.3498778630
 H          5.6083503651        1.8698176197       -1.8874380763
 O         -7.2014293836        1.0776183546       -1.6078839804
 H         -8.1442090730        0.9401610842       -1.6945042376
 H         -6.8140736869        0.2510770248       -1.2425993396
 O          0.7579673179        3.0732349320       -2.7665764292
 H          0.3812175145        3.5937425927       -3.5136967158
 H          1.2002619323        3.7186995966       -2.1806750971
 O         -6.0744906032       -1.3778971256        2.2013820542
 H         -5.2340128218       -0.8384403025        2.2345153578
 H         -6.6629393320       -1.0127214431        2.8617221097
 O         -0.7319830660        4.4283303353       -4.4625567372
 H         -1.4213751649        3.8109715524       -4.7362519191
 H         -1.0863680040        4.9416899901       -3.7129190953
 O         -4.5247900502        2.5947947978        2.9715944437
 H         -4.0990023906        3.3287961274        2.4973814467
 H         -4.3244078141        1.7855267156        2.4727414587
 O         -2.7918339309       -3.9870772199       -3.3830474613
 H         -2.3450152685       -3.3448449024       -3.9712757439
 H         -3.7390271394       -3.8543596505       -3.5357924726
 O          6.2900300812       -2.6106817808       -2.0951628541
 H          6.1226107918       -3.4716638294       -2.5304459726
 H          5.8874642726       -1.9477532318       -2.6777213427
 O         -0.5220323057       -5.0741758446       -2.3853143844
 H         -1.3797355322       -4.9601709860       -2.8236782206
 H          0.0072142457       -5.6699355107       -2.9136311054
 O         -2.1840217351       -3.3079154228        2.9095273173
 H         -3.1477900504       -3.5243252018        2.9090146900
 H         -2.0699980590       -2.6376722760        2.2247272911
 O         -1.8219773165        2.5191884323       -2.0305585592
 H         -1.7661817411        1.6734456857       -1.5612085167
 H         -0.8944088083        2.7968601807       -2.1876650546
 O         -2.5604146711       -3.6571970847       -0.5878646202
 H         -1.6450057514       -3.9740922795       -0.3990205232
 H         -2.6392085355       -3.5917470157       -1.5574710208
 O         -1.7173673647       -2.0788243708       -5.0410839106
 H         -2.5814899424       -1.7894968184       -5.3548185776
 H         -1.3631627643       -1.2906036374       -4.5659166087
 O          1.0076731955       -2.3715183137       -4.8590056066
 H          1.2906710638       -1.4797933102       -5.1219320117
 H          0.1433062360       -2.5152259137       -5.2668568042
 O          2.2206739010       -4.2010543563       -1.1390541333
 H          2.8531422437       -4.3781429203       -0.4241754818
 H          1.3359745407       -4.3562497595       -0.7658431743
 O         -4.1446197639       -1.0051660033       -4.3757896106
 H         -4.7969040142       -1.6959366212       -4.2064506406
 H         -4.5103254485       -0.1628679035       -4.0341671401
 O         -3.7555786154        4.1396392336       -0.9875644577
 H         -4.5008825281        3.5765184204       -0.7196002732
 H         -3.0995320711        3.5270913239       -1.3724776015
 O          4.4598215899        0.5835663644        0.5564578045
 H          4.5889131690       -0.3310444516        0.2594668044
 H          4.6226326044        1.1794442594       -0.1972489583
 O          2.9888171368       -2.8430535885        4.6899475177
 H          2.2280499208       -2.2616423533        4.8576794053
 H          3.4668309523       -2.3917429078        3.9629138888
 O          4.9654374434        4.8160368299       -0.6659266502
 H          4.9450323761        4.5392498865        0.2761343166
 H          5.6389324389        5.4915868523       -0.7415613038
 O          4.6390465764       -0.7899645612       -3.3750251688
 H          4.0441980988       -1.5640790972       -3.3870586123
 H          4.0708029521       -0.0112659811       -3.4081630021
 O          0.4965281098        6.6755612236       -0.4324047756
 H         -0.1460884098        6.5845269703       -1.1516782224
 H          1.1578333663        5.9774469807       -0.6034066886
 O         -5.5099578726       -3.3928212949       -3.7320341969
 H         -6.0678889913       -3.9292157190       -4.2956867803
 H         -5.8493910177       -3.4761890997       -2.8205184599
 O          3.8096366683       -4.4056795641        1.0814146368
 H          3.0911816031       -4.3355557068        1.7602135836
 H          4.3653591643       -5.1354797250        1.3508233920
 O         -0.3731114745        3.7958078210       -0.0735509610
 H         -0.9641695143        3.0788079788        0.2075119091
 H          0.0502121777        4.1281382237        0.7234960878
 O          4.3464361279       -2.0656949709       -0.2825076876
 H          4.2773685671       -2.7302775424        0.4230941078
 H          4.9996504870       -2.3907971868       -0.9277330591
 O         -0.5768860098       -5.5418979227        2.4255125524
 H         -1.1909808008       -4.8594130972        2.7432417536
 H          0.2937334519       -5.3176494215        2.7935647700
 O          3.4307867526        1.7658615419        4.3985896612
 H          2.9169409917        1.2964629249        3.7058793112
 H          4.3513543507        1.6560335448        4.1097477466
 O         -3.8563629869       -0.0400862488        2.1701152168
 H         -3.2368453947       -0.4523367420        1.5316785905
 H         -3.4327009922       -0.1394131845        3.0438295676
 O         -4.7666189975       -3.7707082721        2.7044170673
 H         -4.8119036071       -4.2941472409        1.8880540125
 H         -5.3011109369       -2.9747332783        2.5493171160
 O         -6.3895801302       -3.6863549570       -1.1771163488
 H         -5.7249906935       -4.2001652303       -0.6602299359
 H         -7.2507684642       -4.0089246253       -0.9087019768
 O          0.4481013437       -1.9000558898        1.8614215719
 H         -0.4074397207       -1.5049862894        1.6175585207
 H          0.6331019590       -1.5842279748        2.7764311435
 O         -5.9922132118       -1.0260314985       -0.4833145389
 H         -6.1239575906       -1.1398617058        0.4753928601
 H         -6.0307375523       -1.9199551070       -0.8569252220
 O         -2.6221775663       -1.4309432756       -2.1597344568
 H         -1.6887423652       -1.6628079628       -2.2902562085
 H         -3.0364556791       -1.3066781728       -3.0327249188
 O         -1.9978184360       -1.3623439415        0.7028001423
 H         -1.5963986479       -0.7608806847        0.0486351491
 H         -2.3224133541       -2.1159304874        0.1623293883
 O          0.0012919372       -2.4257799521       -2.3096818235
 H          0.3806686476       -2.3343917129       -3.2026805889
 H         -0.1348040060       -3.3855200121       -2.1840400643
 O         -0.7236750349        0.1340138223       -3.8960048683
 H          0.0994414658        0.3043440389       -4.3829506942
 H         -1.3646289708        0.8183321834       -4.1960192763
 O          5.6269826964        1.4098856318        2.7931399634
 H          6.2795304708        0.7271129553        2.9700225292
 H          5.1476132368        1.0811480389        1.9968633068
 O          7.5951339938       -1.0755408550       -0.3371073851
 H          7.1896041504       -1.7507553842       -0.9180432974
 H          8.5446579117       -1.1668683894       -0.4252944503
 O         -2.1644259279        1.9456043883        0.8904558965
 H         -2.8165759217        1.5137180070        0.3044312455
 H         -2.5617066159        2.7777974221        1.2179800880
 O         -0.9255816138        6.2691112163        1.7223074274
 H         -1.0728976133        7.1302527985        2.1123383916
 H         -0.3997012800        6.4333217797        0.8850556937
 O         -4.5875259293       -5.0207725273        0.2484198669
 H         -4.3598302533       -5.9504150164        0.2187472555
 H         -3.7691279226       -4.5192490616       -0.0371436744
 O         -0.1095152263       -4.1329384860        0.2622419701
 H          0.0782274756       -3.3450854243        0.7941900039
 H         -0.2568825923       -4.8496311414        0.9239555575
 O         -0.7168667336        0.2686399624       -1.0064153837
 H          0.2032085894        0.2324322234       -0.6715645581
 H         -0.6048410180        0.0210624091       -1.9354646596
 O          1.8736114709       -0.1542458508       -0.5735751254
 H          2.0103970134       -1.1027257249       -0.6420767190
 H          2.5872551402        0.1765586010       -0.0170678034
 O         -7.6601826878        0.4713771360        3.4224581311
 H         -8.2688878034        0.6959475267        2.7164459737
 H         -6.9615795108        1.1323874713        3.4317856134
