  101
       -167.54317314
 H         -0.6125431040       -1.2085753937        0.8660341420
 C         -1.0119115707       -0.1975275422        0.7643948088
 H         -1.2171418483        0.2096215975        1.7551732464
 C         -2.3000046275       -0.2372746848       -0.0565661643
 H         -3.0097178562       -0.8992980336        0.4394412178
 H         -2.0848412959       -0.6339655208       -1.0500378890
 N         -2.9263819234        1.0602854694       -0.2157071656
 H         -3.1224767405        1.4727505466        0.6887045877
 H         -2.3298772531        1.6978043605       -0.7288423969
 O         -0.0357483732        0.6503552549        0.1781724329
 H          0.1460546052        0.3289298819       -0.7383974553
 O          2.7042274613        0.7488851824       -0.5635578565
 H          2.4106408819        1.5896906468       -0.9494541372
 H          3.2247076311        0.2992797501       -1.2680797796
 O          6.4334562943        0.4970564152        1.4610011855
 H          6.3406074503       -0.1296893549        2.1859638836
 H          5.6575856065        1.0762202850        1.5315179957
 O         -3.1016642151       -1.8669722922        2.8540519400
 H         -3.7457399074       -2.2411873729        3.4570742205
 H         -3.2565843686       -0.8879175004        2.8822208912
 O          1.5567699790       -0.9634871783        3.1600848993
 H          0.8086486375       -1.4861790633        3.5114221979
 H          1.6141866973       -1.2118200898        2.2145656748
 O          1.1596905610        1.5881575576        2.5073755988
 H          0.9086265981        1.3856242826        1.5910326776
 H          1.2834922077        0.7031516168        2.9230833699
 O         -0.3691430969        3.1777687105       -0.8493760408
 H         -0.2921657900        2.3216839847       -0.3903886895
 H          0.4818218202        3.2956477487       -1.2980558275
 O         -2.0524973847        4.2352538308        1.1232454933
 H         -1.4075823069        4.0631421689        0.4217518548
 H         -1.8402952994        3.6163419789        1.8388323880
 O          4.3090385453       -1.0803097741        2.8524765402
 H          4.1602217891       -0.1787298988        2.4929222793
 H          3.4805524659       -1.2750377412        3.3128785755
 O          2.2436555847        1.0732202057       -3.7829558773
 H          1.5054645103        0.5894413393       -3.3620968958
 H          3.0332531789        0.5613491705       -3.5582364664
 O          0.2586022349       -0.1410529184       -2.3768608625
 H         -0.5503479401        0.1777396833       -2.8289451317
 H          0.2234206264       -1.1163376772       -2.3721479658
 O         -3.9392313194       -0.9281634035       -3.1367245996
 H         -3.5861770053       -1.6483337176       -2.5942852372
 H         -4.5364840029       -0.4049802892       -2.5538731888
 O         -5.4189379515        1.7586058375        1.3337563266
 H         -5.7335155440        1.1422854069        0.6644025442
 H         -5.1224786265        2.5453064099        0.8284701956
 O          0.0271032331       -2.8435093459       -2.2981234178
 H          0.1526125552       -3.2726664365       -3.1460930821
 H         -0.9260514592       -2.9358809030       -2.0738557581
 O          1.8272249484       -1.5965726921        0.5151383975
 H          1.8925137149       -0.7146521064        0.1052417914
 H          2.7469690250       -1.9445253640        0.5202260740
 O          4.0631945818       -0.5749146982       -2.4360964620
 H          4.9184851741       -0.6673210777       -1.9876607409
 H          3.6515267166       -1.4650289930       -2.4040756710
 O          0.2677771279       -3.7141529924        1.1066013035
 H          0.7830166341       -2.9416675758        0.7969971475
 H          0.8448547290       -4.4747406250        1.0349765627
 O         -1.9706688654        0.6933866024       -3.6340865617
 H         -2.7419735738        0.0768495281       -3.4645200309
 H         -1.9300205951        0.8229554843       -4.5817594628
 O         -2.4866082194       -3.5735673247        0.7565461259
 H         -1.5339291207       -3.7039445627        0.8864577097
 H         -2.7722321132       -2.9625610072        1.4569441992
 O         -0.5301820803       -2.5950265158        3.5824210794
 H         -0.3031401403       -3.1569661446        2.8277550489
 H         -1.4303880727       -2.2703611161        3.4103268658
 O          2.1263103377        3.0218943898       -2.0225584136
 H          2.7066978710        3.7507629824       -2.2394125332
 H          2.1458926463        2.3962100303       -2.7954122084
 O          2.9113094172       -2.9702782885       -1.9431005085
 H          1.9620518549       -2.8787178903       -1.7877023954
 H          3.3277301644       -3.1304174354       -1.0873013354
 O         -1.3157212644        2.4242032936        3.1438184487
 H         -1.2998668530        2.9066498607        3.9709721166
 H         -0.3825648395        2.1597092873        2.9582557870
 O         -4.3648357791        3.6947873026       -0.2497330388
 H         -3.9392338262        3.5340708955       -1.1068542970
 H         -3.6507294455        4.0526322884        0.3094110951
 O         -2.6716426810        3.1448586374       -2.4394878310
 H         -1.8457470977        3.3843853963       -1.9909665386
 H         -2.4840868178        2.3157279796       -2.9059930409
 O         -3.5813957432        0.7105474106        3.0319967965
 H         -2.8666520004        1.3611105912        3.0858585892
 H         -4.3023238770        1.1094302602        2.4999364219
 O         -2.6173329856       -3.0719640606       -1.8015330613
 H         -3.0488475415       -3.8468627138       -2.1651296020
 H         -2.6379543463       -3.1941661430       -0.8137939181
 O         -5.2424815421        0.7079394712       -1.4560785793
 H         -5.4920879479        1.5488543840       -1.8441077091
 H         -4.3785684062        0.8857987632       -0.9789856731
 O          6.1940921487       -0.9764523134       -0.7274551429
 H          7.0746286769       -1.2524868870       -0.9819715556
 H          6.3062847196       -0.3546600412        0.0363812295
 O          3.8377702328        1.3638932697        1.7593271777
 H          3.4888571204        1.1399297821        0.8672649381
 H          3.0654630522        1.7094249015        2.2341193254
 O          4.3149004723       -2.5163192729        0.5910751187
 H          4.9859408082       -2.0595902366        0.0550344453
 H          4.4151340382       -2.1325364922        1.4931381664
