  279
       -473.49635262
 O          2.2290919351        2.4726092788       -1.0177480943
 H          1.3625679697        2.8425636653       -1.2669314796
 H          2.4339541497        1.6957379980       -1.5748194864
 O          2.8246920771       -5.2686060011        2.0091947081
 H          3.1306499774       -4.6567080348        2.6993106330
 H          1.9155755008       -5.5226741725        2.2487724182
 O          3.2310036077        2.3799000348        1.4654064861
 H          2.7724531299        3.0044187989        2.0602357070
 H          2.7290535349        2.3428322454        0.6296098209
 O          0.8048829268        1.0208990108        3.0660095528
 H          1.3087787282        1.3825735935        3.8203513145
 H          0.0279133179        0.5389953939        3.4359790084
 O         -2.4672711664        3.9831117130        0.0408112947
 H         -2.8938229695        3.9087707161        0.9191827758
 H         -3.1784215796        3.8099861737       -0.5939337901
 O         -2.5451726557       -0.5690863008       -3.4388572566
 H         -2.2271387932        0.3420239684       -3.2760938301
 H         -1.9698175468       -1.1520573043       -2.8838307529
 O         -1.7581676140        2.0953476640        4.4664744564
 H         -2.5009328247        1.6654518785        4.9327774839
 H         -1.7713120445        1.7199586984        3.5774513575
 O          4.1215754663        4.0325803478       -2.0003938048
 H          3.3855932012        3.5147356381       -1.5918842672
 H          4.7301624822        4.1633129311       -1.2514278810
 O         -3.9050842944        0.7513453290        5.3905147215
 H         -4.6974668048        1.2889147022        5.3658011109
 H         -3.9304252846        0.2092575991        4.5667010872
 O          3.0269188212        0.4524075100       -2.6344203567
 H          3.5418971719       -0.3015759329       -2.2899549142
 H          3.6155611247        0.9664213796       -3.2076938712
 O         -0.1569115488       -3.1055670903        3.7523082317
 H          0.5871665917       -2.8688459633        4.3361733233
 H         -0.9286932159       -3.2969692581        4.3196151496
 O          4.2889152729       -1.7856845160       -1.7024650886
 H          5.1392922223       -1.7230149431       -1.2512168449
 H          4.1617353447       -2.7392262043       -1.8250270027
 O         -2.5533823926       -5.1378757490        2.9113688650
 H         -1.6347105891       -5.4221507914        2.7166060339
 H         -2.5847805567       -4.9643810805        3.8564996489
 O         -2.0690586695        1.9956116540       -2.8479946595
 H         -2.8902746350        2.2949764304       -2.4218498114
 H         -1.3299262981        2.4172266302       -2.3573237202
 O         -0.6970520148       -3.9422512189       -3.8153270700
 H         -0.4238044627       -3.1545454012       -4.3224898511
 H          0.1187212680       -4.3843246781       -3.5245873327
 O         -5.6168844106        2.0465099162        2.9686779147
 H         -6.0627218678        2.1379207654        2.1170566326
 H         -5.8984297125        1.1949303810        3.3376310640
 O          0.0842698400       -5.3778641755        2.3126993438
 H         -0.0241492095       -5.2616425887        1.3502737706
 H          0.1000299749       -4.4811120415        2.7107602875
 O          1.9529393816       -1.3492627496        2.4333030796
 H          1.2892550833       -1.9538019194        2.0394655493
 H          1.4578893015       -0.5632053835        2.7332803257
 O         -2.7498425705        0.1532533829       -6.0234005015
 H         -2.5693901893       -0.2608108593       -5.1550541749
 H         -2.9644482477       -0.5560899850       -6.6290664785
 O         -1.2708594267        5.5866398178       -2.5942541108
 H         -2.1806174816        5.7587509220       -2.2584686244
 H         -0.8718842726        6.4284140477       -2.8089902275
 O         -0.3003880381        3.3441083279       -1.4395876434
 H         -0.2751029769        4.1598432281       -1.9677841347
 H         -0.8753770220        3.5644043937       -0.6842267688
 O         -4.7061940951       -2.3785530535       -3.8066014593
 H         -3.9300561959       -1.8227589806       -3.6423266509
 H         -5.0294524763       -2.6971283740       -2.9392871007
 O         -4.7384248178        1.4497913703       -4.4582045598
 H         -4.0767945333        1.1679556813       -5.1058899121
 H         -5.4661951586        0.8112409375       -4.5061467297
 O         -3.8152512766       -0.3823040188        2.9727174775
 H         -3.2798101437        0.3555792369        2.6361726800
 H         -3.2659799970       -1.1798860165        2.8139576253
 O          0.5132343988        2.7206410214       -4.5648185233
 H          0.5208286673        2.0715147400       -5.3032421511
 H         -0.2822820621        3.2529546648       -4.7465604236
 O         -2.5134218890       -2.5687290095        1.9982055696
 H         -2.6214424300       -3.4988124854        2.2733389601
 H         -2.9189470749       -2.4676546705        1.1156360658
 O         -0.0018343850        0.7631482472       -6.2967952191
 H          0.1552085140       -0.1099342107       -5.8959413348
 H         -0.9643831187        0.8188115429       -6.3881532368
 O         -1.1992969236       -2.1791671022       -1.8845435733
 H         -0.2521351025       -1.9498332681       -1.7561340557
 H         -1.1833192547       -2.9874301962       -2.4351202003
 O         -4.5882142300        0.1208093347       -1.8032626320
 H         -4.3336773567       -0.5575839785       -1.1468457340
 H         -4.0292024774       -0.0411705708       -2.5842075501
 O         -3.5448364241       -1.9698311901       -0.4258032145
 H         -2.7522138414       -2.2578363451       -0.9138005418
 H         -4.2560383609       -2.5756960816       -0.7186542258
 O         -4.6361371797        4.0752185757       -3.9451115960
 H         -4.9170769570        3.2151528921       -4.3086315634
 H         -3.7678524176        4.2216315108       -4.3657949281
 O          5.2065212709       -4.6997217017        0.4307445736
 H          4.5715254364       -5.1635818714        0.9900677480
 H          4.8886359977       -4.8041765239       -0.4814298498
 O          0.8201943251        0.0589327635        6.0717469383
 H          1.2867530501       -0.7390852516        5.7800573897
 H          1.4078338587        0.8032701368        5.8990902891
 O          0.3487085448        0.5899208331       -2.9103950864
 H          1.2991918483        0.3860655168       -2.8523035461
 H          0.2988272816        1.3926093558       -3.4722435002
 O          1.6153605937        4.8479877186       -3.0221071258
 H          2.5748918162        4.7878982773       -2.9441659248
 H          1.3398507936        4.1232905280       -3.6042725922
 O         -1.2680474075        6.3356855218        0.3302813499
 H         -1.7566713585        5.4975496498        0.1498070591
 H         -1.8787059066        7.0444850334        0.1283732645
 O          3.9849305375        0.4046752366        3.1236862555
 H          3.7536272422        1.0509007761        2.4232405110
 H          3.4506782110       -0.3834721375        2.9469720754
 O          2.3324553554        4.2710235202        3.1711396428
 H          1.4332878861        4.6317475897        3.1230412602
 H          2.8776529059        4.9307474894        2.7098430349
 O          1.4056731103       -1.7665872321       -1.6177554306
 H          1.5803253501       -2.5754646092       -1.1065307523
 H          1.8599725015       -1.0845680568       -1.0832005712
 O         -6.3702737737        2.1931357974        0.1905932229
 H         -6.9689860572        1.7906298831       -0.4551225618
 H         -5.6356398212        2.5663635638       -0.3317472237
 O          9.2521622835       -0.5937275139       -0.9535055424
 H          8.8037107599       -1.0662342390       -1.6701455421
 H          8.9342950425       -0.9620236183       -0.1158927422
 O         -5.5272089640       -0.3237349774        0.9184524889
 H         -5.7371638261        0.5874145630        0.6508240757
 H         -4.9625712774       -0.2698950197        1.7189311302
 O         -1.9650833807        3.9601969077       -4.6565532572
 H         -1.6771824148        4.6224557760       -4.0013317099
 H         -2.0931593280        3.1283579503       -4.1544877241
 O          5.3866940755       -2.8831642873       -4.2917179714
 H          5.7281163547       -3.1239375205       -5.1522487707
 H          6.1090785753       -2.3865130226       -3.8316106482
 O         -3.8571146451        4.0467687392        2.3269825521
 H         -4.3571170141        3.2666352132        2.6205998254
 H         -3.3588538302        4.3738624995        3.0912241232
 O          6.2740328656        0.7693623591       -2.2092521569
 H          5.7976692858        1.3030889649       -2.8663021439
 H          7.0172634825        1.3063063492       -1.8828105294
 O          0.1903235778       -1.4982147021       -4.7248642299
 H          1.1122450924       -1.7999605824       -4.6739445944
 H          0.0872577795       -0.8642705736       -3.9886006782
 O          1.7590397207       -4.6916046393       -2.7526969887
 H          1.8969001640       -4.4331163106       -1.8267494516
 H          2.0624281497       -3.9277531969       -3.2873184978
 O         -6.6114568249       -0.5842631939       -4.4489715015
 H         -7.1638015250       -0.9264138411       -5.1509591607
 H         -5.9620511596       -1.2931454044       -4.2334274871
 O          5.1341099867        4.0099133375        0.5245600946
 H          4.4766400252        3.3473321723        0.8427415720
 H          4.7882291849        4.8530761665        0.8508574590
 O         -5.3008494930        5.1381090981        0.2772669900
 H         -4.8342622513        4.8625564636        1.0851390430
 H         -6.1205851850        4.6415173153        0.2568897031
 O         -1.7211147311       -0.8219159343        6.2766988801
 H         -0.8512963355       -0.4080618190        6.4263713944
 H         -2.4033727615       -0.1556661892        6.4065689315
 O         -5.6315908292       -3.2826404951       -1.4139701500
 H         -5.7324253780       -4.2165295599       -1.2219275248
 H         -6.4930084320       -2.8393981954       -1.2029027456
 O          6.4081451580       -2.4278251891        4.2691488290
 H          6.6875738945       -2.3880305259        5.1837289039
 H          6.5045729780       -1.5316904374        3.9099412339
 O         -6.6426753572       -0.3278268342        4.1256325984
 H         -7.3148882531       -0.1352717203        4.7791615839
 H         -7.1167541264       -0.7302498402        3.3482956761
 O         -0.1245784095        2.9062037026        1.4893811658
 H          0.3168564831        2.3071680950        2.1353704357
 H         -0.0605440351        3.8148680713        1.8372561364
 O         -2.7187187897       -4.5005110779       -1.0527518857
 H         -2.9790058817       -4.7637036694       -1.9578474715
 H         -3.3418598947       -4.9347689953       -0.4348035013
 O          7.2988457495       -1.6290503194       -2.9094765747
 H          7.1117680728       -2.1187802663       -2.0845627829
 H          6.9114589129       -0.7424989997       -2.7673676911
 O         -4.9938682573       -2.5343130900        4.3798080195
 H         -5.3974795866       -1.6457057001        4.3378124591
 H         -5.5257033595       -3.0586670430        4.9792365810
 O         -7.8603544565       -1.9849166312       -0.8789872635
 H         -7.7271042536       -1.0809012758       -1.2313828104
 H         -8.1216177522       -1.8742532645        0.0426160245
 O          2.6137807171       -2.4209727485       -3.9549555303
 H          3.5747018702       -2.4109651309       -4.0741756395
 H          2.4148199744       -1.9947241485       -3.0949904644
 O         -2.1479383880        4.6603306048        4.3720626278
 H         -2.1783750140        5.0180168057        5.2586246207
 H         -1.9379923527        3.6874280001        4.4578631103
 O         -2.4174746654       -3.2794101827        5.2266670083
 H         -2.1633170575       -2.5403437835        5.8012000599
 H         -3.2465441948       -2.9931573469        4.8129561377
 O          4.7089492121        2.2624066337       -3.8285456328
 H          4.5362287054        2.9957650217       -3.1766518409
 H          4.7130311226        2.6512270688       -4.7021921503
 O          1.3717959815        5.5049727922       -0.3046212546
 H          1.4433646694        5.3397585462       -1.2575367802
 H          0.4939644656        5.8746908762       -0.1436173983
 O          3.4097832050        6.0013770764        1.3377491596
 H          3.4444999241        6.9545871724        1.4096711187
 H          2.6755495405        5.7962716867        0.7109590917
 O          2.4704943768       -3.7320627996       -0.1848774580
 H          2.4443698848       -4.4017842498        0.5234394514
 H          3.0537046218       -3.0413967387        0.1784685335
 O          8.4544357592        1.8960196937       -1.0334640629
 H          9.1641205961        2.4772944813       -1.3055345591
 H          8.8412929755        0.9805135307       -0.9809168501
 O         -7.2220921642        0.4591204648       -1.8814311014
 H         -7.4288170556        0.3376946877       -2.8149544822
 H         -6.2567224957        0.2808679301       -1.8364494776
 O         -7.6473907898       -1.4471407524        1.9575526938
 H         -7.2874362903       -2.3461594920        2.0060524453
 H         -6.9507017156       -0.9564294743        1.4476477906
 O         -3.8084862810        5.9253126106       -1.8878595277
 H         -4.3375041191        5.7257415298       -1.0949811210
 H         -4.2920316845        5.5397814695       -2.6285110480
 O          6.9242524274        2.1037579941        1.2464889550
 H          6.4126398322        2.9176091635        1.0934070115
 H          7.5641520933        2.0605443964        0.5165319251
 O         -0.1678834664        5.3228977957        2.6457679323
 H         -0.8944985856        5.1976174323        3.2842322624
 H         -0.5188120722        5.8593188509        1.9161119060
 O          2.4979259725       -0.1493841590        0.1708014884
 H          2.4208225326       -0.7043478929        0.9832191531
 H          3.4296245708        0.1269917885        0.1218558645
 O         -1.1519341039       -0.5999383778        3.6179154766
 H         -0.8093956498       -1.4961407326        3.4391316192
 H         -1.4123047203       -0.6231188816        4.5555656871
 O          6.6111063539        0.0592495619        3.0362670958
 H          5.6289014463        0.1465440889        3.0604262997
 H          6.9132428409        0.8951514917        2.6498948147
 O          4.3154169170       -2.1866884695        1.1977701337
 H          4.8722935644       -2.9519519542        0.9775490379
 H          4.7639330508       -1.3830917074        0.8875348256
 O          5.1805682221        0.2685277422        0.2181601407
 H          5.7203476744        0.9019099124        0.7272649729
 H          5.4839952375        0.3701059561       -0.7017919365
 O          4.5194795660       -4.5308801300       -2.2642657760
 H          3.7027310581       -4.9582161459       -2.5556435214
 H          4.9367193994       -4.1469186615       -3.0534498269
 O         -0.2376095210       -4.9104059664       -0.3711062184
 H         -1.1865167803       -4.7681396841       -0.6324010247
 H          0.1621583822       -5.4272873371       -1.0712138365
 O          8.0797756943       -1.5301099314        1.4806974422
 H          8.4466526169       -2.1577563808        2.1047732156
 H          7.5089707073       -0.9215037072        2.0074157150
 O         -3.3005231373       -4.8512191394       -3.6520702820
 H         -2.3916984617       -4.6602412788       -3.9277740359
 H         -3.8402817426       -4.1026101730       -3.9430856398
 O          0.0732886297       -2.5683210209        1.0148339388
 H          0.1191198890       -3.3537419780        0.4520361814
 H         -0.7976591014       -2.5873674556        1.4458791996
 O         -4.3755519387        2.7815876673       -1.6099757573
 H         -4.6305660356        3.2804066616       -2.4171199194
 H         -4.5697698877        1.8339223407       -1.7741155636
 O          2.5544638243        1.9795547003        4.8525911298
 H          2.6153578308        2.8750016554        4.4928181914
 H          3.2443544906        1.4525727636        4.4059787640
 O         -5.5088250416       -3.1220882163        1.7451299819
 H         -5.1583257469       -2.9733611279        2.6407831483
 H         -5.1942611233       -2.3885166025        1.2011608992
 O         -4.4057131462       -5.4190691083        0.8025474364
 H         -4.9185541493       -4.6485235481        1.1103578347
 H         -3.8118789813       -5.6284929612        1.5350007852
 O          6.6684849031       -2.5813823778       -0.5086777810
 H          6.4540340313       -3.4931910283       -0.2787130871
 H          7.1773348507       -2.2096836321        0.2383546044
 O          1.9592020457       -2.3874483255        5.3034458056
 H          2.1247203688       -2.9423324970        6.0653680241
 H          2.6604365063       -2.6039054986        4.6382490501
 O          3.8340622887       -3.2012903555        3.6290824993
 H          3.7784872094       -2.6955657978        2.7927988844
 H          4.7537375501       -3.0825245012        3.9211297800
 O         -2.2577252810        1.4718784496        1.8743907250
 H         -1.8957218765        0.7872058287        1.2716720425
 H         -1.6054708669        2.1887074975        1.6963279683
 O          4.2759313420       -0.0491605160       -5.5241947354
 H          3.3874493020        0.2462665254       -5.3126418200
 H          4.4488042164       -0.8209340306       -4.9799785900
 O         -0.8881595164        0.0431554122        0.0933524640
 H         -0.2239306789        0.6602657967       -0.2218972827
 H         -0.4296822458       -0.7758779999        0.3100523667
