  526
       -891.57568830
 H          0.6090643217        0.9706329268        0.0118725228
 O          2.2922178141       -1.4107900276       -0.4727681320
 H          1.8359685253       -2.0263277290       -1.0719057821
 H          2.9591518320       -0.9614682142       -1.0268342901
 O          1.2848632038        1.6080856945        0.5065185845
 H          1.6976714945        2.2342173775       -0.1918179032
 H          0.7506235856        2.1223580475        1.1950944006
 O         -4.4563016662        4.1506805172        3.5010189105
 H         -4.5741885365        4.5459253770        4.3927566596
 H         -4.7739429742        4.8068289576        2.8561196649
 O          1.4564292556       -6.0687476043        6.0531849394
 H          0.5391967329       -5.8364851624        5.8372918851
 H          2.0045171442       -5.6460205329        5.3618958237
 O          2.7848855369       -3.2359841113        1.3921190145
 H          2.1284022755       -3.1653280146        2.0948161195
 H          2.5629579124       -2.5345965506        0.7336367184
 O          1.4639181879        0.5136529358       -2.5368830980
 H          1.8389196470       -0.2255151077       -3.0416485410
 H          1.0457214898        1.1360066646       -3.1538841343
 O          5.0390388179       -2.7560072187       -0.4594995443
 H          5.3078289121       -1.8658803142       -0.1561443919
 H          4.4888972141       -3.1530787357        0.2178848067
 O          2.5237626555       -0.3923542340        2.0244395806
 H          3.4769705311       -0.4459147482        2.1541505382
 H          2.3761651448       -0.4495107167        1.0656333303
 O         -0.2201060569        0.0486604336       -0.6896143279
 H          0.0090456031       -0.7783034035       -0.2346880355
 H          0.3570307395        0.1114690417       -1.4994605818
 O          1.5099284891       -7.6827076909       -4.1986299588
 H          1.4261435537       -8.3937358966       -3.5543280793
 H          1.9896824901       -6.9942337644       -3.7061800411
 O         -2.0649543772       -0.4202349177        1.8276904420
 H         -2.1763134654        0.5309643692        2.0089534313
 H         -2.6156183880       -0.6150141582        1.0475627658
 O         -4.8350409712       -0.4359337334        6.9325109823
 H         -4.1880210921       -0.0383400760        7.5305252028
 H         -4.3446696861       -1.1765619799        6.5222839266
 O         -1.2244595631       -2.2062761346       -2.1370118847
 H         -0.4214119056       -2.6686801253       -1.8206885689
 H         -0.8887538336       -1.5865489224       -2.8027133412
 O         -3.9956591538        2.1197880344       -4.6107213748
 H         -3.0744944067        1.8281132024       -4.7207613431
 H         -4.2223881708        2.0615054539       -3.6457186944
 O         -1.5466650393        4.0944192861       -5.5278578929
 H         -1.8159741832        3.9169338023       -4.6059949201
 H         -2.2755868232        3.8093226962       -6.1032040473
 O          2.5497213909       -1.5654834782       -3.9665977372
 H          1.8629026039       -2.1808363969       -4.2629000351
 H          3.0360953619       -1.2611022155       -4.7522411044
 O          4.7351011843        3.3964146852       -6.9260119507
 H          4.0033037208        4.0441992213       -6.8733790308
 H          4.3420853222        2.6493867415       -7.4162083745
 O         -4.2806245899       -1.5842929901        3.4807130922
 H         -5.1142556479       -1.7902273072        3.9136253624
 H         -4.1350896105       -0.6309939318        3.6325711132
 O         -1.8994942253        4.0389551194        4.4733882587
 H         -2.6657939134        3.9011002437        3.8879612308
 H         -1.1574624779        4.3228938171        3.9164341649
 O          2.2964824094        3.2284617324       -1.1519813491
 H          3.0580290588        2.9030894736       -1.6574074635
 H          1.6825605409        3.6911639877       -1.7473247313
 O         -2.5716694762        1.5328719643       -0.4332296563
 H         -2.0899009088        0.7841209463       -0.8197927138
 H         -3.1914583287        1.1815374481        0.2293030811
 O          0.0066484320       -1.8485109724        1.1967937252
 H         -0.7283175472       -1.2609385863        1.4814557513
 H          0.5042963480       -2.0345450643        2.0078229267
 O         -0.2178439098       -0.9235635731       -4.3745162397
 H          0.4507804252       -0.3060509376       -4.7219161684
 H         -0.4685694321       -1.4500579335       -5.1491653360
 O          0.2918380777        0.1553123569        3.4403384727
 H          0.1022044405        1.0681365937        3.1838670342
 H          1.0532105622       -0.1244871727        2.9141605054
 O          0.4247067322        2.8749223254       -6.8696023442
 H         -0.2504699117        3.3159980167       -6.3037283074
 H         -0.0525799884        2.5178220111       -7.6234532963
 O          4.8317204792        2.6761059059       -2.1966426145
 H          4.9927290653        3.3650770147       -2.8597390185
 H          5.3789155182        2.8875466026       -1.4152124902
 O          2.6712674068       -5.6888255540       -2.6646475898
 H          3.0045853316       -6.0973366147       -1.8289740986
 H          3.1436769885       -4.8269182530       -2.7401873462
 O         -2.4838418863       -4.6843512506       -1.5704631123
 H         -1.8161411700       -5.1191139966       -2.1185869612
 H         -1.9716288462       -4.3807318307       -0.7838798813
 O         -4.2257465042       -0.7814693689       -3.4048421773
 H         -3.8074733148       -1.1067336032       -4.2331902812
 H         -5.0471602851       -0.3217184773       -3.6840132485
 O          9.2598880122       -1.1955589476        0.2569776584
 H          8.8963969329       -1.8662157434       -0.3555352102
 H          9.0519632521       -0.3440961588       -0.1512153654
 O         -2.0167940159        0.6493997625       -2.9038570914
 H         -2.8480967247        0.1449798340       -2.9667277140
 H         -1.3698454555        0.1976735298       -3.4617088475
 O         -4.5381253278       -3.0318620048       -2.0251899548
 H         -4.3249685128       -2.2120385033       -2.5212811119
 H         -3.7243042617       -3.5539257289       -1.9195701694
 O         -0.0419718976        2.6161887834        2.4019754849
 H          0.1567636576        3.5175950057        2.7053744527
 H         -1.0205920968        2.5430075850        2.3264974253
 O          3.9243268447        1.2306368187        0.2653400205
 H          4.7678315349        0.8228164051        0.5179501760
 H          3.9248563599        2.1641342804        0.4897780800
 O         -6.9741556324       -5.4039403450       -0.8528167307
 H         -7.4444955862       -5.9608876311       -0.2334566282
 H         -6.0545353837       -5.7473437801       -0.9069748843
 O         -3.1534508177       -1.1675367049       -0.5591987203
 H         -3.4988184677       -1.9235700956       -0.0418453809
 H         -2.4322270126       -1.5079664874       -1.1176097393
 O          0.3778564386       -5.0672753464        2.8973778577
 H         -0.2541148547       -4.7939234435        2.2202833810
 H         -0.1040418008       -4.9694795057        3.7367450272
 O         -0.6427114122       -2.0411869547       -6.8724870407
 H         -1.4868743067       -1.7179838940       -7.2296852937
 H         -0.6794888946       -3.0200892445       -6.8985494580
 O         -0.1090968970       -5.7795771125       -2.4932387132
 H          0.8650623289       -5.7952405667       -2.4879425735
 H         -0.3945890161       -6.5827638401       -2.0217565407
 O          1.1332991112       -3.3139065996       -1.9062402690
 H          1.3441001270       -4.0974822811       -1.3734562538
 H          1.2054866360       -3.5634212626       -2.8421291242
 O          0.5696869236       -7.6206332543        0.9255445634
 H         -0.3229307518       -7.3098443562        1.1523731699
 H          0.9985260201       -7.8286277317        1.7672726784
 O          4.3805657240        1.8738249200        5.1745949910
 H          3.7987242330        1.7065250789        5.9512986093
 H          3.7727278711        1.8871821980        4.4034834989
 O          3.0805737679       -1.1517504238        4.9029136337
 H          3.5832951585       -0.6347148176        4.2580161527
 H          3.7477231829       -1.4724869566        5.5510993811
 O          1.6028543472       -8.4189557409       -1.5022057189
 H          1.1907973715       -8.2650935332       -0.6407126309
 H          2.5246519267       -8.1697287186       -1.3580376329
 O         -1.6336448855        0.7368607079        5.4636629506
 H         -0.8950023294        1.3651730497        5.4001197418
 H         -1.9210501875        0.6908323304        6.3940935178
 O          1.1004028471       -2.5164171937        3.6222743819
 H          1.7570986998       -1.9333571674        4.0465078148
 H          0.2213149851       -2.2665119075        3.9617819679
 O         -4.4881111964       -6.3787636408       -1.0740166324
 H         -3.7621395883       -5.7212669241       -1.1875599071
 H         -4.3999168807       -6.9691041126       -1.8281133526
 O         -0.8756037584       -4.1556909392        0.4019673940
 H         -0.0205201059       -4.5651666626        0.1400018263
 H         -0.6413158692       -3.2408458066        0.6893522391
 O          4.9982985777       -0.1321895016        3.1457304951
 H          5.2128617233        0.7423245343        2.7681010961
 H          5.6031963435       -0.2206003526        3.9114445978
 O          0.1650671682        2.2817737787       -4.0576536699
 H         -0.3293048987        2.9061297550       -3.5064185345
 H         -0.4876701643        1.8301990743       -4.6175789946
 O         -4.5542285313        0.6125483355        1.1941635931
 H         -4.9908900024        0.4413015418        2.0400868210
 H         -5.1670128100        0.3478941868        0.5004047514
 O          2.2883304188       -2.9445219722       -7.0659860896
 H          1.6489577534       -3.0807134496       -6.3484318351
 H          2.9646723054       -3.6280887709       -6.9260829797
 O         -5.9745701458       -4.3414927103        2.3132515665
 H         -5.3606556706       -3.7685693241        1.7963268390
 H         -5.7195937843       -4.2299104013        3.2470249289
 O          3.3708513747        3.8858729265        1.3208650978
 H          2.4941315877        4.2456341514        1.0315293052
 H          3.9847339776        4.3360102073        0.6827859058
 O         -7.1198222896        4.8177831286       -0.1401492875
 H         -6.8533566519        4.9308396047       -1.0618056998
 H         -7.2471603716        3.8697520624       -0.0004586180
 O          1.1706436279        5.1132018585        0.6286309384
 H          0.5621459630        4.4900008478        0.2039674119
 H          1.3863367392        5.7952164752       -0.0413521951
 O         -3.7497470266        4.9113912989       -1.4281747954
 H         -4.6175188188        4.8275710782       -1.8824803357
 H         -3.8011968330        5.6965451090       -0.8416225028
 O         -7.3778802504        2.1132939422       -2.2475852203
 H         -6.9120369610        2.1292164356       -1.4029341725
 H         -8.1719147540        1.5726652958       -2.0642724079
 O         -7.5459438260       -1.8768569716       -2.6400082566
 H         -7.3608789965       -2.6312255091       -3.2213997073
 H         -7.3535173402       -2.2277776761       -1.7399173884
 O         -1.5014790425       -7.7387954842       -1.2610374369
 H         -1.7390561637       -7.3317544282       -0.3966574513
 H         -0.9614325677       -8.5079271547       -1.0752177950
 O         -6.5890422589       -2.7724519403       -0.3118613807
 H         -6.8859418856       -3.6964965401       -0.2787139275
 H         -5.6771342892       -2.8199867139       -0.6523408983
 O         -1.7321887483        0.9628312590       -5.6664371384
 H         -2.1033255538        0.0693533800       -5.5936603424
 H         -1.5101504093        1.0835285432       -6.6016877451
 O         -4.4029049139        3.4308923953        0.7243499082
 H         -5.1577478827        2.8310229136        0.6867888482
 H         -4.2323578026        3.7425368051       -0.1812068172
 O         -6.9633938887        2.1259783497        0.6511151600
 H         -7.0380932773        2.4225367846        1.5710258140
 H         -7.3369638858        1.2352672814        0.6216711370
 O          0.4094695694        4.7155355814       -2.4745472304
 H          0.5099954990        5.1141646036       -3.3585332428
 H         -0.0485632763        5.3898800849       -1.9492033497
 O         -4.5681755664        2.0905272281       -2.0597103400
 H         -5.0963057564        1.3009720750       -1.8501996025
 H         -3.7649629029        1.9820057233       -1.5080267812
 O          2.5784149865        3.4188982571       -4.0682271258
 H          1.6666973471        3.0744524288       -4.0540617057
 H          3.1573099386        2.6251010284       -4.0980532424
 O         -5.7518210225        5.9046692309        1.8329904585
 H         -6.2460388655        5.4429860465        1.1103175241
 H         -6.3892445124        6.4597384370        2.2810283056
 O         -2.5928689644        2.2064488530        2.2832177403
 H         -3.2472846136        2.6086626491        1.6812472799
 H         -3.1302819267        1.8641901809        3.0272231832
 O         -4.0399422601       -2.8876652573        1.2202952488
 H         -4.1731383240       -2.2250517811        1.9379380373
 H         -3.2933309699       -3.4206661722        1.5721595935
 O          5.3400021105       -3.9763255762        4.8665173241
 H          5.4236611221       -3.4440295715        4.0470437632
 H          4.4236034029       -4.3038438234        4.8292746045
 O          0.6989313157       -0.5480959661        5.9496705476
 H          0.4795828858       -0.1725263469        5.0631660377
 H          1.6428831975       -0.7676259177        5.8866721370
 O          6.4619934720        3.1889865313       -0.0702210649
 H          6.2091413045        2.8258095116        0.8022835064
 H          6.2604051209        4.1340944465       -0.0229579371
 O          0.1188346215        0.6358789007        8.2601568054
 H          0.7666564541        0.2230619256        8.8343391247
 H          0.2849183263        0.2409736031        7.3688621415
 O         -3.2980993302       -2.4765277333        5.9687292821
 H         -2.5652876589       -2.6437961267        6.5741596743
 H         -2.8706779865       -2.1648961610        5.1395827088
 O         -6.7142125107        2.7765838621        3.3607236290
 H         -5.8159474001        3.1950771026        3.3403324048
 H         -6.9865945764        2.8267279988        4.2799373773
 O          7.7049089267       -1.0385326375        2.4039686185
 H          8.3993013460       -1.1538310254        1.7156508332
 H          7.9746173300       -0.2771312366        2.9298997818
 O         -5.6563665278       -0.1927705532       -1.1455909948
 H         -6.2080430517       -0.6940335993       -1.7548418711
 H         -4.7746538447       -0.6161488708       -1.1253373725
 O         -7.7953881893       -0.6705285401        0.9315092181
 H         -8.2072335765       -1.3434241974        1.5153632649
 H         -7.1692564106       -1.2100143080        0.4138321970
 O         -6.7674004860       -1.6184411946        5.0892175484
 H         -6.4481741158       -1.2450117844        5.9168170018
 H         -6.7276287726       -0.8804803516        4.4404183510
 O         -1.7413431275       -3.6911139680       -4.2447209673
 H         -2.5318722335       -4.2556975856       -4.3313993533
 H         -1.7044073013       -3.3418605124       -3.3284398540
 O          4.0969249349       -0.1379299160       -1.9907812485
 H          3.8721848807        0.3376978797       -2.8083160698
 H          4.0871772606        0.5322372638       -1.2794956597
 O         -3.1030830464       -7.3217626093       -3.4661188026
 H         -2.6006183558       -7.5577145932       -2.6686545705
 H         -2.4183103218       -7.2117677316       -4.1492660866
 O         -9.0553280466        0.1673348097       -1.4466641907
 H         -8.8145196056       -0.5839218018       -2.0032397177
 H         -8.8098580128       -0.0900701022       -0.5445989220
 O          0.4596613834        6.9630487109        5.0569464543
 H         -0.4959858782        7.0828888729        5.2156601237
 H          0.7370523223        6.2605175543        5.6750126908
 O         -2.2618161268        6.6607579703        5.1151544603
 H         -2.3502723784        7.0404819734        4.2225188640
 H         -2.1018079122        5.7052361671        4.9675062442
 O          4.2480026857       -4.5139779129       -6.0345280568
 H          4.7752769414       -3.7774519183       -5.6870225343
 H          4.5199555718       -5.2838399473       -5.4823463740
 O          2.0868337198        7.5183303073        2.8899886684
 H          1.3920127852        7.6639192598        2.2209382526
 H          1.6432762202        7.6007694510        3.7465601564
 O          5.5554352115        4.2398017729       -4.3743533689
 H          6.5079781401        4.2878165692       -4.4543515523
 H          5.2221443126        3.9396194103       -5.2372285981
 O          7.7888270008       -2.8523394560       -1.3275680414
 H          7.2114239636       -2.2042948284       -1.7806593029
 H          7.2722780561       -3.2030246160       -0.5834524376
 O          5.5660763765        2.3864444878        2.3448379704
 H          6.2115131598        2.8125298824        2.9518129777
 H          4.7925590269        2.9620371296        2.3201140906
 O          2.7810054711       -4.5702185775        4.2304642381
 H          2.9963968183       -5.0259358929        3.3902153665
 H          2.0442875636       -3.9716563108        4.0109561432
 O          6.8615045066        1.2853671956       -3.3469802440
 H          6.7674326897        1.3194581023       -4.3079026588
 H          6.0400998314        1.6769514116       -2.9754953520
 O          2.4325290963        4.6395415400       -6.3940756724
 H          2.5694356598        4.2335607814       -5.5030607397
 H          1.7832693601        4.0548720674       -6.8189521026
 O          5.9332733250       -2.4338330548       -5.2044424638
 H          5.9948030882       -2.0377575294       -4.2970713767
 H          6.7135097421       -2.9824187511       -5.2950098356
 O          3.7914078729        1.1189942836       -4.4128309536
 H          3.0324097341        0.8297679413       -4.9561512772
 H          4.5840512885        1.0365776389       -4.9630494216
 O         -5.3197339111       -3.9718665884        4.9691589979
 H         -4.5567576033       -3.4832951133        5.3403923279
 H         -6.0815218369       -3.4151836922        5.1805267433
 O          4.9875517809       -1.9354450177        6.5567184121
 H          5.6714670441       -1.2880043223        6.3278040885
 H          5.2456011617       -2.7682463654        6.1029057996
 O         -2.5906576864        3.3987084418        7.0044255419
 H         -2.2651008176        3.4724702705        6.0851432327
 H         -1.8361800952        3.6334814166        7.5626928688
 O         -1.9299047309       -6.5546738242        1.1028683914
 H         -1.7241043545       -5.6075024908        1.0087945463
 H         -2.8388561085       -6.6034535871        1.4474300697
 O         -1.9842516513        3.3339150817       -2.8897193269
 H         -2.6630538931        3.7817524651       -2.3692590468
 H         -2.1093763624        2.3692763051       -2.7827982693
 O          0.7292931932        2.2725943877        5.3327161826
 H          0.7362637169        3.2158648359        5.5916887310
 H          1.2698492413        2.2086511165        4.5283680518
 O          6.0359376018       -0.4047075848        0.4449574987
 H          6.5480917668       -0.6585036898        1.2450814839
 H          6.6900898042        0.0222131952       -0.1389704894
 O         -2.0604425620        4.8310615276        1.3048658449
 H         -2.9781390676        4.5357611227        1.2650086302
 H         -1.5275305094        4.1554006740        0.8379342780
 O         -6.3916943423       -4.2612054819       -3.4114588646
 H         -6.8438572416       -4.8544675426       -2.8022004108
 H         -5.7066127958       -3.8082498386       -2.8581333955
 O         -2.2342822933       -4.0555509453        2.7206863772
 H         -1.9986744172       -3.3162123155        3.2929595793
 H         -2.6670259286       -4.7230748879        3.2830196989
 O          7.9397912167        1.0242068311       -0.8664579742
 H          7.6425460030        1.8838567542       -0.5318576513
 H          7.7983785294        1.0658105259       -1.8226919559
 O         -0.6542393971        3.2806232037       -0.3402817401
 H         -0.6648324694        3.5888090253       -1.2570463609
 H         -1.3231486174        2.5619965705       -0.3084378568
 O          1.5275523689        0.6233436139       -5.7991906296
 H          1.5374666502        0.1112633056       -6.6243055843
 H          1.1709887921        1.4987026634       -6.0434930206
 O          6.4036848362        0.1050775535        5.4012890540
 H          5.7799141084        0.8521215655        5.4819293392
 H          7.2356094181        0.4697085306        5.0637864096
 O          3.5686037765        5.5255266824       -2.7852673662
 H          3.1043809298        4.7562818325       -3.1801229168
 H          4.2712668467        5.7330348088       -3.4049495134
 O         -6.4423282282        0.1455848164        3.1365242214
 H         -7.0082511058       -0.1174683798        2.3888033147
 H         -6.5795372698        1.1003361112        3.2968360766
 O          0.9452247244       -3.7038278697       -4.6630854357
 H         -0.0264003565       -3.7437065353       -4.6039426407
 H          1.2321320884       -4.5507507806       -5.0639915952
 O          0.1934659774        5.1367196823        3.1142620175
 H          0.5385620465        5.4104608677        2.2470113140
 H          0.4036069057        5.8363140537        3.7652266523
 O          7.2519436169        3.7579895832        3.8715132692
 H          6.6581924025        4.0335744055        4.6070687339
 H          7.2161408777        4.4922005964        3.2337979731
 O          4.8371523294       -6.4403323422       -4.3169816579
 H          5.6360550889       -6.0923826075       -3.9029724189
 H          4.1240751093       -6.3385106178       -3.6663740105
 O         -0.7833425046       -4.7281718609       -6.9449076216
 H          0.0792858481       -5.0313744594       -7.2474132584
 H         -0.9737660621       -5.3065504928       -6.1736610018
 O          6.2606415120       -1.2701788760       -2.8599618055
 H          5.4076796181       -1.0050098767       -2.4358422690
 H          6.6737431172       -0.4146858117       -3.0822653593
 O          8.4297062947        1.2912962675        3.9734084061
 H          9.3674560448        1.3540072494        4.1536663882
 H          8.0929398911        2.2046581239        3.9136394184
 O         -0.9286056117       -6.4952734061       -4.8996744632
 H         -0.6508153695       -6.0687116757       -4.0527016780
 H         -0.2435295930       -7.1605738554       -5.0417477996
 O         -1.0956255872        1.0245472534       -8.3832738923
 H         -0.2706389843        0.5299265402       -8.5019658806
 H         -1.8001013270        0.3734061430       -8.5323991012
 O         -4.7662051469        0.5346408486       -6.5847443448
 H         -5.6606147058        0.2214690326       -6.4427232825
 H         -4.5538841356        1.0406992482       -5.7655145610
 O          3.7948344142       -6.8594719905       -0.5829034541
 H          4.7450524524       -6.6561575356       -0.7079536879
 H          3.6073339412       -6.5602904636        0.3251155382
 O         -3.9002015092        0.9927185582        4.1687110911
 H         -3.0915288395        0.9076979240        4.7156027207
 H         -4.5908494650        1.4091125110        4.7132974975
 O         -2.8987349396       -1.6608976971       -5.4260927586
 H         -2.3477277162       -2.3251039111       -4.9472797201
 H         -3.3423092624       -2.2082592863       -6.0980963555
 O          4.0756576373       -3.4423818988       -2.8088726129
 H          3.5841216090       -2.6889525350       -3.1905265731
 H          4.3841756130       -3.1476883051       -1.9255882755
 O          1.1514925755       -0.6428386234       -8.1908972887
 H          1.7992206286       -1.2490652498       -8.5563052547
 H          0.5141396795       -1.2337171026       -7.7153004803
 O         -3.2489728312        2.9438323041       -7.3989543350
 H         -2.6450506217        2.5840055886       -8.0530296100
 H         -3.8631473450        2.2306213324       -7.1799550570
 O          1.4895902637       -5.2304612830       -0.0130534949
 H          1.3052593357       -6.1359357717        0.3005175340
 H          2.0948674878       -4.8229484614        0.6288237958
 O         -6.5415865099        0.3030730556       -4.1200905586
 H         -7.1044852704       -0.4195138539       -3.8120681380
 H         -6.7767208944        1.0708615611       -3.5625844875
 O          5.1514366543       -2.7333022518        2.5147396802
 H          4.2497097419       -2.9429334656        2.1898753922
 H          5.2195819613       -1.7699330848        2.6246326932
 O          3.4966872099       -6.0228950556        2.0341502433
 H          4.4448867778       -6.0685199676        2.3038112483
 H          3.0439362829       -6.7679345646        2.4597279749
 O         -5.7203787309        1.9342975079        5.9201267889
 H         -5.3755379064        2.6347307710        6.4766504561
 H         -5.5475450611        1.0879427061        6.3765848747
 O         -3.8044240224        6.9881779819        0.2768042611
 H         -4.5855424582        6.6964802409        0.7779339216
 H         -3.1832290872        7.2675348047        0.9698624677
 O          6.5656610634       -4.5353681551       -3.1513420361
 H          5.7071108159       -4.0700783509       -3.1174698802
 H          7.1925844540       -3.9731736723       -2.6650026167
 O          6.0917014298        1.2376901121       -5.9670547798
 H          5.7904962337        2.0765658073       -6.3550836695
 H          6.1743352603        0.6123576264       -6.6876461376
 O          6.2764829386       -5.9433405119       -0.8057164413
 H          6.5876812947       -5.3327382012       -0.1288622525
 H          6.4528315295       -5.5244011476       -1.6666916211
 O          1.7656503733       -5.7828059042       -6.1538648794
 H          2.6948860607       -5.5344827524       -6.2490302404
 H          1.7645421042       -6.6269805509       -5.6833049642
 O         -2.9782397997       -0.9249822727       -8.0795387203
 H         -3.6204777098       -0.4320749135       -7.5275519157
 H         -3.4203496135       -1.7328828427       -8.3511977853
 O         -3.4788703999       -3.7222269473       -7.0557844138
 H         -2.6228230286       -4.1305158255       -7.2420645828
 H         -3.8530962845       -4.2653890104       -6.3433232263
 O          0.9871967812        4.7049882223        6.4307766825
 H          0.4353974421        4.4259794398        7.1772215406
 H          1.9100225283        4.6469648423        6.7807555470
 O         -2.0727921583        7.2511783865        2.4535281163
 H         -1.2771552200        7.7111230446        2.1492911290
 H         -1.9336513239        6.3128954737        2.2252976250
 O          1.9186737480       -3.6008473449        7.0850304288
 H          1.8144504889       -4.5716024343        7.0337791083
 H          2.4416558386       -3.3753854597        6.3090089996
 O         -8.1587670634       -2.6558457702        2.6710845916
 H         -7.9887002613       -2.4178256855        3.5875444539
 H         -7.4838288355       -3.3186268595        2.4339226710
 O         -4.5708537975       -6.5708680740        1.7072594677
 H         -5.1496440323       -5.8069149739        1.9194582533
 H         -4.6571935572       -6.6962052044        0.7509408001
 O         -0.6532710591       -2.7385360463        6.7833912108
 H          0.1477323494       -3.1493515590        7.1478635208
 H         -0.3173040281       -1.8987340629        6.4105324579
 O          1.5840552315       -7.3975879720        3.4185266656
 H          1.6144199785       -7.5158519866        4.3723496807
 H          1.1250646080       -6.5393897827        3.2639796205
 O         -1.0593970061        6.3624898458       -0.6764223259
 H         -1.5458636698        5.8460105247        0.0002456713
 H         -1.7110417675        6.8853624335       -1.1475385144
 O          0.1548521652        8.0292828190        1.0215319389
 H         -0.1528889446        7.3842205845        0.3403701434
 H          0.3923719103        8.8240867739        0.5450266350
 O         -6.0496808824        4.6016306273       -2.7379894515
 H         -5.6199007679        4.7529999018       -3.5989217436
 H         -6.4164666941        3.7052769267       -2.7652382409
 O          3.8608899100        5.5022998653        3.3686666058
 H          3.2644731390        6.2664575039        3.3088591377
 H          3.5659270993        4.8867241905        2.6638809132
 O          2.5846403234        2.0317463094        3.2108907743
 H          2.7221351554        2.7152916527        2.5447824259
 H          2.5302907892        1.1898655226        2.7119383765
 O         -1.5404188932       -1.6796348932        4.1156304188
 H         -1.4032826885       -0.8828401849        4.6581751556
 H         -1.8337326338       -1.2894723201        3.2650043987
 O          3.3342660927        4.2316964111        7.5152721598
 H          4.1045242869        4.4082448509        6.9480657451
 H          3.2424110630        3.2688744442        7.5702175096
 O         -4.0660016569       -5.0181143176       -4.6436540686
 H         -3.8686748755       -5.8917942064       -4.2681307864
 H         -4.9613874475       -4.7857383470       -4.3378313808
 O          3.6892471309        1.1022329659       -7.9437425825
 H          3.7897625802        0.3540441702       -7.3210731098
 H          2.8350936781        0.9908496361       -8.3633498154
 O         -0.9485947713       -4.9512141613        5.2523395708
 H         -1.8323212626       -5.3303950778        5.1948617097
 H         -0.9875828387       -4.1218835877        5.7695447702
 O          5.9877586322       -5.9174880332        2.9106044929
 H          6.5078960589       -5.4043953284        2.2741131575
 H          5.9633351104       -5.4006483079        3.7308080527
 O          1.8281723779        6.9697146930       -1.2119252738
 H          1.1122240359        7.3290554247       -1.7766975611
 H          2.4182937871        6.4967340159       -1.8225027438
 O          3.8998413060       -1.0178391704       -6.2808749081
 H          3.3253266392       -1.7111996328       -6.6816006033
 H          4.7237326102       -1.4609575451       -6.0212637892
 O         -0.2425432522        3.3226823861        8.4583335282
 H         -0.0286305120        2.3729820247        8.3314451188
 H          0.1193067942        3.5747680431        9.3074214545
 O         -3.4815335804       -5.8874695682        4.2813467913
 H         -3.8218977019       -6.4815722576        3.6024391635
 H         -4.2480968897       -5.4196227337        4.6441701226
 O         -4.4761209722        5.1892506306        5.9759380705
 H         -3.9199864225        5.9705646527        5.8260112196
 H         -3.9237850122        4.5916562610        6.5048943831
 O          3.7980515741        7.5691656636        0.6324378151
 H          3.3809829348        7.6455836784        1.4992670500
 H          3.0703833762        7.5737171048       -0.0117672358
 O          2.7382075216       -1.0609121507        8.0140417843
 H          2.2739251739       -1.9043755729        7.9262867272
 H          3.6550478330       -1.2760547283        7.7938621638
 O          2.6451526391        1.5481728440        7.1042525419
 H          2.6306712407        0.6437370592        7.4576096088
 H          1.8427437222        1.6726653698        6.5496654544
 O          7.1175868265       -3.9650821693        1.1982432431
 H          6.4229992475       -3.4220694430        1.6340252253
 H          7.9563798894       -3.6290364185        1.5180363975
 O          6.2826122355        5.5817580537        2.1339905009
 H          5.4303478950        5.6734720659        2.6073121242
 H          6.4373603579        6.4184862404        1.6977302144
 O         -4.4155979726        4.7290567577       -4.9400540357
 H         -4.2360493356        3.7628599292       -4.8535552566
 H         -4.6531799840        4.8717884620       -5.8555205656
 O          5.1924949182        4.3586477844        5.4655902577
 H          4.8993236457        3.4221693375        5.3567985167
 H          4.6784700869        4.8726619917        4.8187385742
 O         -2.4586536832        6.3750925154       -3.3763922370
 H         -2.8645295662        5.8282197275       -2.6828275353
 H         -2.9113982075        6.1172646482       -4.1836490359
 O          0.5022661722        5.8772732807       -4.9332860311
 H         -0.3105961723        5.4572000010       -5.2509223376
 H          1.2105294723        5.6393972798       -5.5561127591
 O          4.7805170058        5.2984832798       -0.3608589914
 H          4.5628827014        6.1700313083        0.0297865077
 H          4.3417543573        5.2915654466       -1.2323923689
 O         -2.6131216239        0.8628709029        7.9684358861
 H         -2.7133025625        1.8163207096        7.7810386277
 H         -1.7532804325        0.7410114518        8.3955019719
 O         -0.0465904671        7.7327137148       -3.0084956563
 H         -0.9554858782        7.4000947400       -3.0820324536
 H          0.3744071843        7.3840745253       -3.8060459802
