  252
       -422.41611682
 H         -1.4450234244       -0.2344788626       -1.4908969965
 C         -0.8725188276        0.4921017413       -0.9175805240
 H         -0.6624387573        1.3534846470       -1.5506554468
 C          0.4337999421       -0.1528561395       -0.4735309997
 H          1.0189588224       -0.3835562464       -1.3572989314
 H          0.2115367174       -1.0566897930        0.0828829341
 O         -1.6666682015        0.8747898527        0.1913088677
 H         -1.3537955844        1.7493537923        0.4819613714
 N          1.1868763930        0.7700853049        0.3829908709
 H          0.5895767274        1.1108490761        1.1657574555
 H          1.4823758331        1.5809631180       -0.1999095974
 H          2.0229281091        0.3186533346        0.8138703922
 O          0.5703340268       -2.8981612656       -2.1246040706
 H          1.4255729584       -2.6844660150       -1.7002774330
 H         -0.1045845507       -2.7976379786       -1.4294913639
 O          1.2825905631       -2.5670638638        1.7146762260
 H          0.4654443483       -2.0520847348        1.8879547943
 H          1.0087290194       -3.4720790244        1.4762672725
 O          7.0791874274        0.5448260191        1.1886464108
 H          7.1109663107        0.8847561919        0.2763080866
 H          6.9109069839       -0.4097352042        1.1062408226
 O          2.7783900643        0.0640701540       -2.8121396394
 H          3.7098088040        0.3432781739       -2.8761989835
 H          2.7557348248       -0.8914370667       -3.0180578413
 O          1.8967457928        1.5233165791       -4.9472686538
 H          1.4393206136        0.9691904453       -5.6035230203
 H          2.1024682050        0.9413610479       -4.1858407954
 O          5.0205148361        1.6241707970        2.5526989393
 H          5.8394814259        1.3075827622        2.1249276445
 H          4.3206664668        1.0210379217        2.2304540448
 O         -0.8693844298       -0.2692616304        5.1652876973
 H         -0.9233924128       -0.8384031487        5.9324009821
 H         -1.7393319469       -0.3264409242        4.7223218284
 O         -0.1883712937        1.4201159560        2.6345035429
 H         -0.8542337281        2.0251710497        3.0244116893
 H          0.4614049218        1.2101886347        3.3287559102
 O         -3.9869871281       -5.4791154183        1.5070312543
 H         -3.9802729637       -6.4337405972        1.5734780379
 H         -3.0851111659       -5.1706502141        1.7395218315
 O         -1.5566687091       -4.4348496176        2.0273261275
 H         -0.7626916449       -4.9046480376        1.7181057599
 H         -1.3059686650       -4.0232749451        2.8993003647
 O         -1.6354846285       -3.1939178291       -4.1346118540
 H         -1.7843846332       -3.8320533045       -3.4107722916
 H         -2.3461515831       -2.5472850032       -4.0767759920
 O          3.1404811778       -0.2504973135        1.9048539594
 H          2.5967514278       -0.0473629417        2.7113456365
 H          3.3534146790       -1.1960977748        1.9801853577
 O         -1.3107920561       -2.8705506145       -0.2298651302
 H         -1.4202627816       -3.3315874225        0.6189937508
 H         -2.1107433377       -2.3242116389       -0.3839195987
 O         -5.6854301993        0.2086886359       -2.9419189931
 H         -5.0441185703        0.4751207936       -2.2426370881
 H         -5.9719739261        1.0795384990       -3.2879014830
 O         -3.7884729553        1.1737090640       -1.4406015913
 H         -3.1952063335        1.0731383566       -0.6793873851
 H         -3.2564700929        1.5719355324       -2.1483721912
 O          1.9882800592        3.1982136252        4.1180542723
 H          2.7742461621        2.9309836600        4.6003695692
 H          1.2269921111        2.8672713518        4.6589823792
 O          5.2593631102       -1.4722692279       -4.6961417556
 H          5.7855322646       -1.9532519379       -5.3349953703
 H          5.7245080587       -1.5519814050       -3.8309348468
 O          1.8498583956        2.3446160493       -1.6814062864
 H          2.6267781285        2.9396455043       -1.6993927630
 H          2.1525027434        1.5127444623       -2.0813882310
 O         -0.9136937987       -3.0365696789        4.1240859189
 H         -1.0259230404       -2.1771892065        3.6757798581
 H         -0.0055337937       -3.0201608894        4.4539114031
 O          4.0620329962        1.8565595708       -0.0891707180
 H          3.4602877796        2.3025841652        0.5364238890
 H          4.8173249725        2.4308281911       -0.2208364250
 O         -2.3082487971        2.3470414122       -3.4206443914
 H         -2.3482439342        1.6768121220       -4.1265815714
 H         -1.4045441522        2.7189613119       -3.4756382373
 O          3.8858860366        4.0473742028       -2.1004011828
 H          3.3947434323        4.8831632091       -1.8542903320
 H          3.8974129318        3.9705120629       -3.0657744229
 O         -1.8817074289        4.9232989201        1.6927932813
 H         -1.2073845238        5.4451024822        2.1513763998
 H         -1.3399984131        4.2760450199        1.1712481784
 O         -5.6881953561       -3.4455713513        2.4134281457
 H         -5.3188292178       -4.3301776545        2.2990374129
 H         -6.2529071003       -3.2662593244        1.6352973914
 O          1.7666822733        0.2741952240        4.0503669765
 H          1.5167722286       -0.5869254152        4.4230252022
 H          2.4955176489        0.6430853115        4.5979885010
 O          0.6014690258        5.3424345768        2.7880024221
 H          1.3760358201        5.7072776435        2.3451743748
 H          0.9396212892        4.7148426775        3.4395533883
 O          6.1480439462        4.0108310984       -0.7900643168
 H          6.6692506439        4.7838256964       -1.0064182223
 H          5.3142850183        4.0676879310       -1.3303635862
 O         -3.5482005338       -1.7698638415       -1.1297323672
 H         -4.0329344199       -2.6082657928       -0.9820341228
 H         -3.6204765039       -1.5866852998       -2.0760764568
 O         -5.6586203378       -1.5110986652        4.4729670894
 H         -6.1902191481       -0.8324171776        4.0368133611
 H         -5.7665275654       -2.3093154010        3.9373888922
 O         -4.2561198837        1.6406954990        2.9582783419
 H         -3.7910420342        0.8231379721        3.2599326272
 H         -5.1953142580        1.4217717908        3.0351643834
 O          0.7908396955       -5.1224900995        0.9020463184
 H          1.6843383327       -5.3877958446        1.1753359374
 H          0.7267799883       -5.3169260036       -0.0577542322
 O          1.7890769675       -2.4445702196        4.4037315427
 H          2.6764174017       -2.5404518955        4.7545381285
 H          1.8447571383       -2.5528679075        3.4331249181
 O         -2.0361928590        3.0636113471        3.6722334044
 H         -2.9048081023        2.6420289353        3.5861493107
 H         -2.0414125272        3.8320117199        3.0698152153
 O          2.2049651464        3.1276015926        1.4629491605
 H          2.1320273836        3.0123939308        2.4372521725
 H          2.4431105256        4.0522273246        1.3417421698
 O          0.5459610970       -5.5077083420       -1.7760228319
 H          0.5454520625       -4.5478173952       -2.0143578456
 H         -0.3482697754       -5.8052007948       -1.9691241811
 O          6.4830397415       -1.3861766429       -2.3164969241
 H          5.7604662890       -1.1082347642       -1.7037810815
 H          7.1412902426       -0.6886728574       -2.2526368650
 O         -7.9246490054       -0.8967422467       -1.8763357366
 H         -7.5943617072       -1.6571853302       -1.3756963841
 H         -7.1433379096       -0.4581418869       -2.2694475317
 O         -6.2052431180        2.8221660139       -3.0028747325
 H         -5.4597570391        3.4363192352       -2.9771880200
 H         -6.3897909203        2.6350029266       -2.0666061219
 O          4.6874357760       -0.6606785450       -0.4942033366
 H          5.1244491543       -0.9614960353        0.3106339483
 H          4.4441744387        0.2839075014       -0.3553609019
 O          6.4139953250       -2.1107700574        1.2855425535
 H          7.0119879504       -2.2636486198        2.0230524809
 H          6.6653703538       -2.7379227621        0.5390258896
 O         -5.4408950622       -0.3699229698        0.3537216413
 H         -4.5826606364       -0.6519105695       -0.0032716000
 H         -5.6612259199        0.4844787075       -0.0766381083
 O          4.2657359853       -4.4802906617       -0.8105885257
 H          3.9505973704       -4.8936631977       -1.6496733509
 H          3.7167094567       -3.6629505755       -0.7398469913
 O          0.2194759906        3.2262036780       -3.5851868089
 H          0.7410394601        2.9184312919       -2.8106130409
 H          0.6335565605        2.7722638426       -4.3336033813
 O          2.6742869105       -2.3687192406       -0.5751491476
 H          3.3291288176       -1.6421190405       -0.5979217812
 H          2.2617199683       -2.3738540997        0.3132159951
 O          5.1109653691        4.2452502445        1.7919602675
 H          5.6135531033        4.1649099515        0.9673148663
 H          5.0310036478        3.3440588441        2.1618428935
 O          2.5459763051        6.0769396724       -1.2396811406
 H          1.6051623876        5.8365917056       -1.3664876627
 H          2.6892421877        6.1016916555       -0.2805173635
 O         -2.2764149606        6.0699811322       -0.8781936253
 H         -2.9264341979        5.4918401858       -1.3267324872
 H         -2.3202770539        5.8570713109        0.0660237237
 O          3.4516793498       -5.3905524204        1.4987345415
 H          3.7940869836       -5.1593528218        0.5937612462
 H          3.9336118712       -6.1634971651        1.7907230712
 O         -6.7229549868        0.3255074143        2.6222248791
 H         -6.1993057135        0.0230642585        1.8511856962
 H         -7.2912346184        1.0425626158        2.2949533311
 O         -3.8302149790        4.1236070334       -1.9817287653
 H         -3.8805380547        3.5760921901       -1.1844210426
 H         -3.2885227510        3.6195085803       -2.6105769714
 O         -3.2378076497       -0.6017202437        3.8854780455
 H         -3.1743192562       -1.1552623915        3.0765855353
 H         -4.0510615279       -0.9277423122        4.3306950683
 O          3.9300195381        3.2193672363       -4.7526058911
 H          3.1310058754        2.6614540152       -4.8968499721
 H          4.0618060973        3.7231642636       -5.5555626680
 O         -6.8913393700       -2.5795318902        0.1385397076
 H         -6.3248939839       -1.7718391405        0.1853226493
 H         -7.6892432479       -2.3338900309        0.6657834444
 O          3.1009447000        5.9013095533        1.4959553279
 H          3.8923650058        5.3238832932        1.6570289503
 H          3.3338940319        6.7645061702        1.8393455801
 O         -3.8639638816        3.0960045209        0.7179308548
 H         -3.9341870299        2.4855407126        1.4781711835
 H         -3.4541623528        3.8960049010        1.0624385375
 O          5.1738163218        1.0941410248       -3.5230747972
 H          4.8616447877        1.9019952740       -3.9650643017
 H          5.2879548549        0.4156698999       -4.2024296561
 O          4.0253361810       -2.7981345273        2.2970191153
 H          3.7346838351       -3.7063757097        2.1114874232
 H          4.8956436030       -2.6830549868        1.8691067994
 O          0.0279321430       -0.6553623074       -3.5095537754
 H          0.5513519587       -0.6417915806       -4.3167193127
 H          0.1395152733       -1.5459102754       -3.1260585354
 O          2.8340353358       -2.4557506038       -3.7955907901
 H          2.0961079471       -2.5731718730       -4.4229776978
 H          3.6320216145       -2.2230467855       -4.2979543353
 O          6.9151345233        1.4192757232       -1.4068281328
 H          6.2568295290        1.2882026006       -2.1111275003
 H          6.8823916816        2.3672018086       -1.2122959504
 O         -2.0614601020        0.1270877421       -4.9749500624
 H         -2.8323999316       -0.4273377137       -4.7963196490
 H         -1.3809149211       -0.1502403399       -4.3225497543
 O         -8.3426574250        2.1681995054        1.3937624045
 H         -8.8133951752        1.5493364492        0.7895097319
 H         -8.9920268432        2.7853257795        1.7306222200
 O         -0.3071447191        3.2937796933        0.3479900300
 H         -0.1345547766        3.8839206889       -0.4190585000
 H          0.5171324757        3.2894075037        0.8663026418
 O          0.0508970621        5.1126554149       -1.5614100154
 H         -0.7930125980        5.6020577908       -1.3705272599
 H         -0.0329260013        4.7460548363       -2.4506485641
 O         -9.4850877442        0.3663047783       -0.2088733704
 H         -8.8643330865       -0.0467356168       -0.8739190649
 H        -10.3120139793        0.4968859936       -0.6729287552
 O          0.4015379697       -0.2620706489       -6.3444256797
 H         -0.5314573556       -0.0429901598       -6.1988595982
 H          0.4706767740       -1.2270139513       -6.2901592061
 O          0.6718087806       -2.8816378815       -5.4308449877
 H         -0.1541645501       -2.9760783741       -4.8990840683
 H          0.7490829296       -3.6913247851       -5.9360278706
 O          6.8178383353       -3.6295171396       -0.7428040527
 H          6.8491296037       -2.9781620198       -1.4621856294
 H          5.9427049785       -4.0646157098       -0.8208682286
 O         -6.2051143927        2.1204471415       -0.3308772314
 H         -6.9177280272        2.3425237925        0.2838884457
 H         -5.3950282759        2.5583100512       -0.0152315923
 O         -2.2097109397       -4.7528086205       -1.9674578164
 H         -1.8542928210       -4.1247252875       -1.3034702334
 H         -3.1613669658       -4.7709595584       -1.8199999973
 O          3.0520053984       -5.1325022974       -3.0439915846
 H          2.2034409541       -5.4677959185       -2.7223206087
 H          2.9089731761       -4.2017172093       -3.2949373971
 O         -8.6994510213       -1.4838300323        1.7091430250
 H         -9.1707168605       -0.8723655747        1.1219237615
 H         -8.1137054674       -0.9357122643        2.2555833951
 O          7.4848267283       -0.9028502184        3.6604417375
 H          7.4920423011       -0.1608289585        3.0407675552
 H          8.1377744231       -0.7111800784        4.3345593226
 O          4.0600877076        1.1143720548        5.0581952909
 H          4.5117316920        1.4443502142        4.2605363056
 H          4.3728034744        0.1974607558        5.1483161738
 O         -0.0895882325        2.3390366869        5.5012593242
 H         -0.2795978163        1.3831359430        5.4629488751
 H         -0.8591173518        2.7701651628        5.1039287861
 O         -0.8989717910       -1.0912222200        2.1980888118
 H         -0.6883803282       -0.1710691860        2.4712730293
 H         -1.6304763075       -1.0046404323        1.5767799737
 O         -3.4002879966       -2.2270866001        1.7693477429
 H         -2.8362701618       -2.9702417641        2.0051237221
 H         -4.3098423317       -2.5277536833        1.9693667271
 O          4.8656115271       -1.4788712446        4.5792285664
 H          4.5217657371       -1.9591973913        3.8085532340
 H          5.7992141726       -1.3215886275        4.3792546689
 O         -4.7755987032       -4.1409425530       -0.7802673769
 H         -4.5178590287       -4.6324120760        0.0199113696
 H         -5.6663027751       -3.8012099344       -0.6087705768
 O         -4.0495294830       -1.5547817322       -3.9402756613
 H         -4.6949937249       -0.8466875764       -3.6637858712
 H         -4.5726417795       -2.2043198808       -4.4119961282
