  312
       -524.30047654
 H         -2.0074108632       -0.2343813965       -0.4804330152
 C         -1.0213624509        0.1291429983       -0.1886862819
 H         -0.4605636937        0.4057703621       -1.0758722848
 C         -0.2947280888       -0.9693505698        0.5674118910
 H         -0.1582224934       -1.8038762046       -0.1143466229
 H         -0.8785463906       -1.2891529049        1.4299251188
 O         -1.1529339492        1.3134788637        0.5744613271
 H         -1.5302161859        1.0450457147        1.4461967075
 N          1.0216333459       -0.5129439274        1.0409958969
 H          1.5187420174       -1.3386439022        1.4380647653
 H          0.9053461277        0.1850954243        1.8071836885
 H          1.6088404226       -0.0892250961        0.2718502774
 O          0.4420234432       -0.9394188388        5.2844138414
 H         -0.5277065921       -0.8562162849        5.4002720570
 H          0.5920212109       -1.8797861748        5.0704267267
 O          2.8941036350        0.3632293242       -0.6441657925
 H          3.3876823340       -0.4399463363       -0.3952651919
 H          2.8958477332        0.3565512732       -1.6192187895
 O         -3.2504101654       -5.8053422432        1.1304082276
 H         -3.1219828014       -4.9170051446        0.7228202666
 H         -3.2354883686       -6.4261937347        0.4003373076
 O          0.8255833158       -1.4666700404       -2.2302927934
 H          0.0434978053       -1.5382291578       -2.8022806661
 H          1.1010882901       -0.5375125302       -2.3089437242
 O         -5.7516278409       -4.7720835422        1.5473148241
 H         -5.0226462162       -5.3909696320        1.7035499348
 H         -5.5896097891       -4.4464963806        0.6331425781
 O          7.0947189943       -0.9161960429        3.7974745057
 H          7.9000913277       -0.6931102942        3.3038843426
 H          6.5397905652       -0.1119470490        3.7819793473
 O         -2.5511663907        6.0345155997        2.6165905781
 H         -2.8547945568        6.5035402624        1.8324087317
 H         -1.9775232754        5.3158669013        2.2750935483
 O          1.7426039821       -2.8770729593        2.0460518111
 H          1.4103449067       -2.9827991076        2.9609366897
 H          2.5147697308       -3.4906076769        1.9997959314
 O          0.4751480896        1.7788354569        6.3743619476
 H          1.3378359340        2.0308111777        6.0039321091
 H          0.4636553671        0.8159295080        6.3879264261
 O          1.0477299548       -3.4545491980        4.5458389911
 H          1.9790340825       -3.7261748365        4.7718406011
 H          0.5175956005       -4.2538419205        4.5623020854
 O          8.2288089715        0.4554130453       -1.9967660339
 H          8.3284522497        0.5498235624       -2.9461846147
 H          7.2824705025        0.2231029241       -1.8465632068
 O          1.2936804398        3.6896328170       -4.5433558066
 H          0.8885483173        4.3984100030       -5.0467716877
 H          0.7960035164        3.6498528844       -3.7066632302
 O         -0.5986437444       -5.4333317724       -1.4187869469
 H         -0.0300106288       -6.1961496963       -1.2659614759
 H         -0.4519046586       -4.8644252620       -0.6321202104
 O          5.4072818562        0.2115953641        1.1500327455
 H          4.7203023139        0.9073529410        1.2521426983
 H          5.1415279489       -0.4646094636        1.8007985596
 O         -6.0995587356        4.1099833184       -2.0940846643
 H         -6.7945799451        3.5755519540       -1.6835594151
 H         -5.6620825957        3.4963339215       -2.7174786422
 O         -1.4435374475        5.0772880009       -4.5699542496
 H         -1.0466307046        4.6995908040       -3.7535101154
 H         -2.2212551037        5.5498667173       -4.2506207015
 O         -2.1938217243       -0.5744950834        5.2435153026
 H         -2.7236267803        0.0069217907        5.7931658920
 H         -2.2167984823       -0.1670811021        4.3423111055
 O         -7.2751003825        2.1079480892       -0.6619485002
 H         -7.3752608812        1.3580059373       -1.2754152027
 H         -7.8837809705        1.9296175525        0.0736914064
 O          0.3478811706       -4.3456847991       -3.7632839375
 H          1.2521811276       -4.0130261092       -3.6324021192
 H          0.0815867095       -4.7550204793       -2.9198716434
 O          3.2410511776        0.1749673121       -3.3187773098
 H          3.8408805228       -0.3847041754       -3.8354898693
 H          3.3896432551        1.0813311440       -3.6423831126
 O          0.6706593522        0.8945201208        3.3246654734
 H          0.6212869735        0.1709373508        3.9839017215
 H         -0.0768552575        1.4843174126        3.5365824757
 O          5.3458359678       -2.2029954373        5.6011371471
 H          6.1083958157       -1.7836257941        5.1832832344
 H          4.6735195093       -1.5129012026        5.6878521973
 O         -3.3336941384        2.6487720685        1.9964122681
 H         -3.9407116123        2.3931242926        1.2739286185
 H         -3.8060064262        3.2587917181        2.5992237735
 O         -0.2830580881       -4.0405921769        0.8325129999
 H          0.5566853271       -3.6280971732        1.1321024563
 H         -0.6074204208       -4.5411657490        1.6128401854
 O         -3.7721761353       -1.2928135920        1.4349860905
 H         -4.4074914383       -1.0538583867        0.7322674058
 H         -4.3017121995       -1.7768292846        2.1112391402
 O          3.5523332238       -4.1245069489        4.8375179519
 H          3.8100955095       -4.3718784546        3.9376091390
 H          4.2309000051       -3.5180279172        5.1818832535
 O          2.0548959766       -3.6701487140       -0.8430012117
 H          1.4487393898       -3.1314252610       -1.3615519260
 H          2.6517131892       -3.0286538450       -0.4024055090
 O          1.2437402358        2.4218776409        1.0651402566
 H          0.3244399360        2.1393276214        0.8915289345
 H          1.2005621519        3.2145696401        1.6305228884
 O         -2.5303108176       -2.9344423118        3.7571078369
 H         -2.3683102840       -2.2535376027        4.4238685752
 H         -3.4901917496       -2.9925059862        3.6747362305
 O         -2.4187552466       -4.0543713165       -4.1852240517
 H         -2.5438579710       -3.2971738269       -3.5802021994
 H         -1.4711210841       -4.2487401367       -4.1484742918
 O          6.5184638370        4.0272407381        2.8476438904
 H          7.2765703181        4.4423199277        3.2573331406
 H          6.8306385532        3.1442870900        2.5186254960
 O          9.1005600830       -0.1132990082        2.1001378096
 H          8.5846528283        0.7090647230        1.9115642354
 H         10.0118892775        0.1435655336        2.2359686341
 O          3.7566953374        2.1131917916        1.9170264329
 H          2.8397669457        2.0209765539        1.6117870742
 H          4.0667741039        2.9716257986        1.5644120290
 O          6.1951748364       -3.1586768296        0.1133798603
 H          6.2298021145       -3.3129745550        1.0755537511
 H          7.0015788260       -2.6294942860       -0.0743074735
 O         -5.3637452290       -0.3154213095       -4.1818727909
 H         -5.5365855876       -1.2672800601       -4.0382138144
 H         -4.6245925006       -0.3124147569       -4.8216909808
 O         -3.7921191982        0.2586790390       -1.9742503292
 H         -4.4530785687        0.2415486587       -2.6897452581
 H         -3.0669351276        0.8319855065       -2.3055163035
 O         -2.2721230405        0.3927415839        2.7894499590
 H         -2.8410094195       -0.2676819840        2.3358619028
 H         -2.7817865723        1.2310457246        2.7765675929
 O          3.8550334609        2.7324946168       -4.0661903257
 H          4.1558125165        3.0159570203       -3.1891049778
 H          3.0315706098        3.2090390143       -4.2508930145
 O          4.0758682430       -1.4730017926        2.7994159135
 H          4.6486387995       -2.2304999297        3.0010006807
 H          3.7565525023       -1.1203707417        3.6516709443
 O          5.6524844117       -0.0199296723       -1.5014809959
 H          5.6213352079       -0.0885264545       -0.5240977906
 H          5.3945461044       -0.8939708466       -1.8597918090
 O         -2.5466964278        2.7720863333       -5.2587242895
 H         -2.0896469895        2.3186384390       -5.9790680494
 H         -2.1301169629        3.6594531225       -5.1452504876
 O         -2.5719502525       -2.9677444190       -6.6645715057
 H         -1.6221039655       -2.8865873118       -6.8221402854
 H         -2.6352416379       -3.4996944001       -5.8468543681
 O         -5.7634219416       -1.3686462116       -0.3029291558
 H         -6.2169582565       -0.8682363921       -1.0109290998
 H         -5.6746386704       -2.2876645462       -0.6013129771
 O          2.6441371819        2.1024204505        4.7298597468
 H          2.0381993400        1.8571259710        4.0022810936
 H          3.1526515780        2.8754559955        4.4350691135
 O          0.1401657230       -2.6618688413       -6.0006760652
 H          0.2691500118       -3.4218173256       -5.4145938872
 H          1.0191948693       -2.2909631853       -6.1693022044
 O          0.8981544003        1.2751233417       -2.5829724025
 H         -0.0279885200        1.5496906461       -2.7319384748
 H          1.3627532925        2.0357056119       -2.2038146411
 O         -3.2101470783       -2.3246409152       -2.2871565125
 H         -3.3586735471       -1.3710991654       -2.1148963689
 H         -3.0590865597       -2.7564055921       -1.4222327216
 O         -0.2802608959        5.3568771739        4.3484547536
 H         -0.9995224770        5.9016755566        4.0096375623
 H         -0.6757155073        4.5099208801        4.6087417539
 O         -1.1172318459       -1.2312103670       -4.0977841778
 H         -0.5937166301       -1.6530511768       -4.8099413954
 H         -2.0150515607       -1.1638142421       -4.4742528715
 O          6.1716698405       -3.2219472208        2.8408965328
 H          6.3731499568       -3.9228038483        3.4607449477
 H          6.6248812083       -2.4099760870        3.1644522964
 O         -5.4319917915       -2.9635232000       -3.5898453433
 H         -5.1450389486       -3.4935951710       -4.3343002322
 H         -4.6262232631       -2.8084089305       -3.0331272560
 O         -7.9793459457       -2.6091009730       -2.3609623428
 H         -8.0193917187       -2.9515606741       -1.4536361113
 H         -7.1494728208       -2.9036862679       -2.7631748562
 O          2.5239461704       -1.3304639198       -5.8840696774
 H          3.4815494230       -1.1952456185       -5.9230881888
 H          2.1313992349       -0.4643417510       -5.6650726260
 O          4.0754467304        4.3179956046        4.0013575739
 H          4.9339350080        4.1459538989        3.5598408780
 H          4.2287533300        5.0000992956        4.6553067344
 O          5.4909149928        1.2990407732        3.9325934106
 H          5.0963477834        1.4045769330        4.7980795262
 H          4.8222703037        1.5748731884        3.2832851483
 O         -4.3507976958        4.3807143677        3.7681526555
 H         -3.8088101834        5.1333871779        3.4529315633
 H         -5.2505979766        4.4972126186        3.4463883008
 O         -7.2348346481       -0.1039956161       -2.1787797324
 H         -7.7356152081       -0.9470072837       -2.2943830332
 H         -6.7419057201        0.0212982754       -2.9991687549
 O         -2.7363582147       -3.3521553230        0.1392213982
 H         -1.7911853818       -3.4602430719        0.3540280656
 H         -3.0742262801       -2.6200483893        0.6986988064
 O         -3.5365211653        5.2427887144       -2.7032788274
 H         -3.2645967404        4.3620773904       -2.4047442416
 H         -4.4955000097        5.2042853959       -2.7732663804
 O          3.5705834713       -4.7540676489        2.1301665591
 H          3.9412164013       -5.0260902364        1.2688445436
 H          2.8688118543       -5.4009655201        2.3442219866
 O          1.7013074978       -6.3306454055       -0.2427686425
 H          2.5812047721       -6.6902073603       -0.3720936479
 H          1.7853608568       -5.3689334063       -0.3955638913
 O         -7.9623601680       -3.3310127130        0.3472803116
 H         -8.0778140236       -2.5877189945        0.9457884427
 H         -7.5487047568       -4.0325123084        0.8607874804
 O          8.3546724765       -1.6274091445       -0.1239046247
 H          8.6366613586       -1.2087503238        0.7041190515
 H          8.5197355123       -0.9774703332       -0.8206951279
 O          7.4899356547        2.8136357911       -0.8373115010
 H          6.5975749423        2.8446377936       -1.2071619947
 H          7.9436642652        2.0837206048       -1.2983444042
 O         -0.4698847618        3.8396368158       -2.4024032536
 H         -1.2619314183        3.3451745678       -2.1270686457
 H         -0.3204528168        4.4725533705       -1.6714292657
 O         -1.0803836651        0.8893561453       -6.6575528707
 H         -0.2743821949        0.8481022869       -6.0900567764
 H         -0.8072013507        0.6189065861       -7.5337669906
 O          3.2223951312       -0.4696097895        5.1710719651
 H          3.1046636829        0.4937132270        5.0593995770
 H          2.3509065231       -0.8099059594        5.4030369948
 O          5.1114175101       -1.0265368779       -5.0098919007
 H          5.6760912405       -0.2422212092       -4.8665357482
 H          5.4152339865       -1.6976705934       -4.3854656064
 O          2.3894626451        5.5954412471        0.2657832111
 H          3.3497403442        5.4933236911        0.2995303295
 H          2.0952805896        5.3118699290        1.1550883851
 O         -5.3362299219       -4.0664269238       -0.9950801836
 H         -6.0539800539       -4.4561307477       -1.4968800099
 H         -4.5128158752       -4.5250968790       -1.2920900532
 O         -1.0843672137        2.6668584903        4.4155394840
 H         -2.0091108095        2.3938614774        4.5681290299
 H         -0.5958349936        2.4190438716        5.2337778087
 O          4.7854290186        4.3214954971        0.7434939358
 H          5.0370062665        3.8308285083       -0.0560810237
 H          5.5749369268        4.4265014608        1.2914893941
 O          4.4168204924       -5.1902283601       -0.4336595433
 H          5.2006121917       -4.6280464830       -0.3435175910
 H          3.7415030021       -4.6644041494       -0.8847552342
 O         -1.0700719500        3.8837919640        1.8634492154
 H         -0.7876226817        3.5931526531        2.7402896056
 H         -1.9074304341        3.3894959112        1.7088031481
 O          6.2189973808        1.2203818073       -4.0347284088
 H          5.6168017525        1.8986411350       -4.3624004290
 H          5.8874457216        0.9816901342       -3.1572015970
 O          2.6645764628       -2.8241472507       -3.5987222905
 H          2.6903174903       -2.3989937080       -4.4769349359
 H          2.0939090351       -2.2305939856       -3.0607382590
 O          3.8243523246       -1.9935587262        0.1923956402
 H          4.7210532335       -2.3755591542        0.0643742230
 H          3.7376009087       -1.8761420034        1.1543072633
 O         -1.3000235708       -5.2146918740        2.9902890432
 H         -1.7023119757       -4.4115246932        3.3781870575
 H         -2.0268746549       -5.6556096172        2.5197100909
 O          1.1787532851        0.9946580187       -5.2284944788
 H          1.3944824594        1.9312841879       -5.3417169969
 H          1.1531408622        0.8928968147       -4.2495951071
 O         -1.6676556031        1.2923350664       -3.2241384110
 H         -2.0115867761        1.8390503733       -3.9624023167
 H         -1.4395032903        0.4221691207       -3.5983321760
 O         -4.8285917021        2.4224993918       -3.7629700385
 H         -5.2713489446        1.6603362576       -4.1451441467
 H         -4.0898072044        2.6361821929       -4.3526929566
 O         -4.8586823089        1.3111900196        0.2689535085
 H         -4.4267981818        0.9411169519       -0.5261202235
 H         -5.7052951555        1.6817771069       -0.0501325840
 O         -2.6966959560        2.9504437172       -1.1193112202
 H         -3.4344275607        3.3094457990       -0.5936180286
 H         -2.1949355256        2.3824156243       -0.5180377609
 O         -4.7460013181        4.2317417487        0.2013661872
 H         -5.2821799806        4.2735909022       -0.6219563912
 H         -4.2064903845        5.0435947305        0.2179556412
 O         -2.9535206030        6.2516662679       -0.2137125617
 H         -3.2010812850        6.1805532351       -1.1521620312
 H         -2.0008725946        6.0606914577       -0.2127954571
 O         -3.2832522174       -5.4594582145       -1.9675143318
 H         -2.3636380428       -5.4839084515       -1.6474352473
 H         -3.1875137246       -5.1496376134       -2.8829698144
 O          2.1974321612        3.3024495214       -1.2157917472
 H          2.2127536022        4.2418500674       -0.9641127320
 H          1.8695497883        2.8493199106       -0.4033561659
 O         -3.1853272280       -0.6117600140       -5.6756272648
 H         -2.5828208391        0.0145173220       -6.1079967447
 H         -3.1035729612       -1.4603110247       -6.1740539593
 O          1.6487519009        4.5794593671        2.6566572772
 H          2.4930425897        4.5300521305        3.1299353406
 H          0.9887824587        4.9539280182        3.2789164073
 O         -5.4122339018        0.9210322289        2.9009135512
 H         -5.0264742326        0.8581061062        2.0053084575
 H         -5.8791060662        1.7801762930        2.8738174692
 O         -8.5898386675        1.4147581471        1.5944080759
 H         -8.1830034571        0.5294498980        1.7363395497
 H         -9.5169036002        1.3341728815        1.8151569753
 O          7.4242332452        1.8732188654        1.6240053954
 H          7.5313602661        2.2735441896        0.7262072019
 H          6.6871075370        1.2263537176        1.5264434849
 O         -7.1772510313       -0.8655191706        1.9500127595
 H         -6.5682285077       -0.2832536837        2.4525127503
 H         -6.7104761057       -1.0385142468        1.1019004474
 O          4.7262230005        2.6188319482       -1.4200433035
 H          4.8024579698        1.6536879579       -1.3444495702
 H          3.7624684753        2.8060510683       -1.2934791841
 O         -5.2772578107       -2.6989831746        3.0941400981
 H         -5.4758259718       -3.5175114381        2.5735242672
 H         -6.1040541415       -2.2033242733        3.1227518799
 O         -3.6884002796        1.9077337200        4.8733878498
 H         -4.2976275115        1.4150135576        4.2945165475
 H         -4.0060504767        2.8198463526        4.8468742854
 O         -6.4350527638        3.3444252714        2.2199422193
 H         -5.9410748302        3.6457248923        1.4327924661
 H         -7.2873962837        3.0174488379        1.9144812489
 O          1.3460669894       -6.2256865720        2.4697911079
 H          0.4491321627       -6.0352069664        2.7667152060
 H          1.2938827360       -6.4224908760        1.5173974273
 O         -0.3101575842        5.4068725537       -0.2428040384
 H          0.5748040527        5.7763043888       -0.1372108064
 H         -0.4595039482        4.8133214297        0.5159049586
 O          5.1029597500       -2.4139661480       -2.6051421789
 H          4.1887470286       -2.6526799338       -2.8915921824
 H          5.4683722948       -3.1474686588       -2.1089990017
