  114
       -193.40474106
 O          5.1046779399        1.0942350578       -0.5306690672
 H          5.0856431140        1.9951122891       -0.1282891372
 H          4.7801316667        1.2087132375       -1.4407914987
 O         -1.8261516693        2.8145625713        3.8696057731
 H         -0.8895861504        2.7930545477        4.0965121247
 H         -2.0224433155        1.9519651533        3.4686532083
 O          1.8711441671        3.0104539037       -2.6264343882
 H          1.9968038627        3.5452044799       -1.8227496729
 H          0.9391984444        2.7375960550       -2.6311196663
 O         -3.1163510744       -0.3041624952       -1.0320107862
 H         -2.2919536304       -0.4790744969       -0.5285351277
 H         -3.2714537430       -1.1385060542       -1.5297588443
 O         -2.0937855494        4.5614957039        1.8379732077
 H         -2.1487969714        4.0955981972        2.6990341134
 H         -2.7329930894        4.1179906892        1.2609722439
 O         -4.7012736315        0.1284586318        0.9989859092
 H         -5.6262122904        0.1245447328        0.7526616421
 H         -4.1716201261       -0.0113346283        0.1671841702
 O          3.8997872305        1.3945522856       -3.0126447915
 H          3.1038348269        1.9824499538       -2.8961948542
 H          4.4407569999        1.8333759911       -3.6712778104
 O          3.7580148043        2.2097566731        3.1419354478
 H          4.4092112861        2.0014538447        3.8124655092
 H          3.6294975410        1.4076909803        2.5990207388
 O          3.1253889588       -2.0245988116        2.5187949853
 H          4.0014842298       -2.4135565652        2.5203255975
 H          3.2111839801       -1.1882311189        2.0161841050
 O         -3.0572435814        3.5707790370       -2.3813955456
 H         -3.2810078142        4.4912572782       -2.5189400319
 H         -3.3117400220        3.3517073322       -1.4588882343
 O         -1.8314005434       -5.2292540164       -0.0245416459
 H         -1.5770590720       -4.9116087573        0.8582547992
 H         -2.7618393108       -4.9781506345       -0.1300568633
 O          3.7905892640       -1.3406372886       -3.2538038294
 H          3.7743874043       -0.3642253085       -3.2131029949
 H          4.3976963094       -1.5787693509       -3.9553081351
 O          1.3007738402       -2.7420264042       -3.1761715787
 H          0.7641093653       -2.0092473780       -3.5058878224
 H          2.2153569271       -2.4484163085       -3.2636970091
 O         -3.1877699059       -2.5655664086       -2.4375569424
 H         -2.2805484397       -2.8734684678       -2.2110372398
 H         -3.1136019112       -2.1685580254       -3.3217116987
 O          5.6014582903       -1.3946345233        0.5949913324
 H          5.6371748917       -0.5089618849        0.1951763206
 H          6.4822290408       -1.7642491655        0.5238349230
 O         -1.1309921471        1.4746816120        0.3389571895
 H         -0.5827952588        2.2068190772        0.7074498458
 H         -1.4171734641        0.9440548849        1.1110504476
 O         -0.8096476593       -3.3313605852       -1.5235043935
 H         -1.0228783292       -4.1865316514       -1.0805196760
 H         -0.0169599501       -3.4316302967       -2.0696081050
 O         -3.4648615649        2.7444550207        0.1591495018
 H         -2.6165766348        2.2381543211        0.1945483525
 H         -4.1268603263        2.1570636827        0.5366717813
 O         -2.3038232219        0.4437124216        2.4989682296
 H         -2.0333760669       -0.4045330047        2.8970828771
 H         -3.2220148086        0.3498080905        2.2188442436
 O         -0.7500799574        2.0894795974       -2.2817599601
 H         -0.9757154555        1.8215054599       -1.3723640847
 H         -1.4735755338        2.6797021052       -2.5469677905
 O          2.1374837332        4.3933270309       -0.2508098802
 H          1.4052178092        4.1134604322        0.3529583177
 H          2.0904278490        5.3485903385       -0.3093729909
 O         -4.3233677952       -3.9993304482       -0.4334394885
 H         -4.0418565815       -3.5075581067       -1.2282264538
 H         -5.0850308885       -4.5230569654       -0.6836364300
 O         -0.8045684665       -4.0916338367        2.2832094310
 H         -0.0436846260       -3.7490395118        1.7562588174
 H         -0.4522802578       -4.7605939456        2.8717712976
 O          0.8465006659       -0.4025663176        3.3761979102
 H          0.0391221085       -0.8884432969        3.5946477402
 H          1.5673615041       -1.0400732250        3.3957079369
 O         -3.4800026053       -2.3430461228        1.6727010927
 H         -4.0647411655       -1.5773536673        1.5770259746
 H         -3.8120616311       -3.0142942855        1.0600355559
 O         -3.7847850124        1.0615093944       -3.3092660635
 H         -3.5886440519        0.7108799304       -2.4231142797
 H         -3.5943621625        2.0079216686       -3.2591476452
 O          0.9962975982        2.3370752287        3.6320834156
 H          0.8841647641        1.3695954360        3.6095230744
 H          1.9530274790        2.4852974284        3.6501833244
 O         -1.4940875458       -1.8800145864        3.7007451134
 H         -1.3613659467       -2.6590017361        3.1197523842
 H         -2.2117273605       -2.1072463912        4.2932340250
 O          1.3008364171       -3.2256296952        0.9404111770
 H          1.9496713077       -2.8323737537        1.5591300003
 H          1.8128289929       -3.6796286172        0.2673530058
 O         -1.2245396119       -1.5273882615        0.4156163318
 H         -1.9001552022       -1.8434385415        1.0474361964
 H         -1.1037322166       -2.2587769132       -0.2205869140
 O         -2.5947540263       -0.9412967876       -4.5427311769
 H         -2.7572979880       -0.9629385337       -5.4855846703
 H         -3.0707724900       -0.1481426961       -4.1898295998
 O          0.2281279342        3.5023778360        1.3376660989
 H         -0.5870210631        4.0533373699        1.5028510663
 H          0.5078882301        3.1699576111        2.2193018986
 O          4.5548188315        3.3790013099        0.6873949550
 H          3.7665035885        3.8029286746        0.3083358643
 H          4.3467098171        3.2047608076        1.6172816506
 O          3.3947814798       -2.3852342954       -0.7081314914
 H          4.1419387652       -2.0910726825       -0.1576820323
 H          3.6419533281       -2.1754681794       -1.6204875667
 O         -0.2696432864       -0.4673349598       -3.1283951004
 H         -1.0573719934       -0.7457646401       -3.6234554227
 H         -0.4117307032        0.4802346587       -2.9524932845
 O          3.2566879871        0.3433529254        1.3566162194
 H          2.4004210444        0.2302177987        0.8589465266
 H          3.8924532385        0.5655323766        0.6524286530
 O          1.3321956682       -0.3319897644       -0.2359050201
 H          0.4592539642       -0.6258593632        0.0540521981
 H          1.7846761893       -1.1226228808       -0.5624569758
 O          1.2556468931        0.5933310229       -5.1513062655
 H          1.4416263733        1.4448674305       -4.7511277319
 H          0.8190720301        0.0800582848       -4.4445516480
