  129
       -218.88740203
 O          1.0851044614        0.4181412329        0.1523362171
 H          0.3128522040       -0.1474289461       -0.1677241033
 H          0.7391912395        1.2310702687        0.5588815867
 O          3.2786690860        2.9248264180        1.3528190664
 H          4.0581944572        3.4791026322        1.2778626184
 H          3.4134430084        2.2027457125        0.6925313415
 O          1.3013598243        3.2869635148       -1.1623912736
 H          0.8761549048        4.1090410430       -0.8950075432
 H          2.2532198438        3.4906285036       -1.2630449210
 O         -0.3544205571       -0.6781046570        3.4421800014
 H         -0.8530918604       -0.2210592352        2.7305517291
 H          0.5327277637       -0.8682414787        3.0552249213
 O         -0.7083490387       -3.5083903446        2.9590121729
 H         -1.6683127293       -3.5358666334        2.8306029881
 H         -0.5198822579       -2.6461003825        3.3557958789
 O          3.4404642838        1.1312110891        3.3927468398
 H          3.3052764036        1.8848256325        2.7836724069
 H          4.3119505060        0.7813298033        3.1318022934
 O          5.9574182842        3.0948652237        0.2624810021
 H          6.1905282121        2.3001697782       -0.2859521363
 H          6.7099630432        3.6836653192        0.2080310124
 O          6.4696536485        1.0149604418       -1.2784301624
 H          5.8856579757        1.1393752496       -2.0363259406
 H          6.2001161359        0.1699462917       -0.8747875821
 O          1.5104534209        1.0793518565       -2.8203879416
 H          1.2987455084        1.8280941183       -2.2403798629
 H          1.5757626506        0.2860747312       -2.2502866000
 O         -0.3346190700       -4.5491203988       -1.8082862066
 H          0.0180960882       -4.3548153240       -0.9204865689
 H         -1.3056719416       -4.5370643420       -1.7257594777
 O         -3.5257256160       -3.1775203498        2.6878948833
 H         -4.0281313911       -3.8847083172        3.0942049340
 H         -4.0199349934       -2.9346910264        1.8646900515
 O          0.6816354257       -3.6711231036        0.5605355764
 H          1.6224333779       -3.5220931242        0.7079026657
 H          0.2575487167       -3.7359688601        1.4347579975
 O          2.0048580621       -0.8342683872        2.2563930195
 H          1.6503132530       -0.3597787329        1.4595622589
 H          2.5547802168       -0.1790972243        2.7358390648
 O         -6.5202261377       -0.3018822881        1.0009478020
 H         -7.3579103805       -0.2613589722        1.4624900346
 H         -6.0191787150        0.5100598596        1.2657448499
 O         -4.0284140425       -1.7813916888       -1.9116121105
 H         -4.8390492948       -1.7266977623       -2.4665720038
 H         -3.5062161832       -0.9919494651       -2.1377291722
 O         -6.2287521427       -1.3550269677       -3.3455317847
 H         -6.6173572612       -0.6931228447       -2.7177146760
 H         -6.1031872891       -0.8876781863       -4.1721294382
 O         -2.9351621500       -1.0834494159        4.4007044758
 H         -3.2130865673       -1.8039490832        3.8069764299
 H         -1.9759020009       -1.0133890270        4.2959924162
 O         -3.0302136687       -4.2618361930       -1.5712563172
 H         -3.3520582466       -3.3768177693       -1.8347907946
 H         -3.6721232908       -4.5966403665       -0.9438089275
 O          2.2083077669       -1.3753852421       -1.9042176602
 H          3.0554217486       -1.4670878139       -2.3683714891
 H          1.5594418700       -1.8960398233       -2.4187072006
 O         -4.9815255602       -2.5430212865        0.5600932586
 H         -5.5954361976       -1.8238287814        0.7809900616
 H         -4.6250947323       -2.2882391229       -0.3115777161
 O         -5.2525972159        1.8790877678        1.7578725173
 H         -4.7044707713        1.6949407547        2.5407160254
 H         -4.6794199174        2.3369212752        1.1293120295
 O          3.6614086854        0.8231159232       -0.2497508732
 H          3.8667030177        0.9501585563       -1.1908696406
 H          2.7271149616        0.5356660575       -0.2120211425
 O          0.7734254025        1.6795460683        4.2122955251
 H          1.7110643550        1.4686046182        4.3008371330
 H          0.3018214982        0.8250412177        4.1640732660
 O         -6.9519174930        0.5190013896       -1.6297704607
 H         -6.2198935570        1.1516962772       -1.7564825841
 H         -6.8328233484        0.1605264793       -0.7348527056
 O          3.2654662833       -2.3319268936        0.4162685774
 H          2.7558843416       -2.0037359802       -0.3516417189
 H          2.9132248567       -1.8471468893        1.1908514100
 O          0.5871768467        2.6050247956        1.7492554170
 H          1.4876035552        2.9050659992        1.5427406184
 H          0.6365039176        2.3016236960        2.6914098896
 O          4.7751855297       -1.5817152252       -2.9618262137
 H          5.1785649677       -1.5910866126       -2.0689920221
 H          5.1286633446       -2.3362505425       -3.4326193940
 O          5.6186685615       -1.4946431819       -0.4003909339
 H          6.2730196727       -1.7725669755        0.2411952420
 H          4.7382691832       -1.7827937214       -0.0264127093
 O         -3.6820760295        1.4122340339        3.9620706152
 H         -3.4083747600        0.4666371578        4.0768604561
 H         -4.0010476517        1.7007982253        4.8173231859
 O          4.1591169166        1.1336413232       -2.9659666868
 H          4.3963885944        0.2405647709       -3.2521757319
 H          3.1827796000        1.1952569694       -3.1037389289
 O          5.5308701651        0.5301158494        1.7818012346
 H          5.9454452203        1.3842557056        1.6305090086
 H          4.9070072078        0.4217708275        1.0420308653
 O         -2.1547394153        3.2582086960        2.6070581014
 H         -1.2914386692        2.8613556900        2.4440805176
 H         -2.6490038218        2.5920675676        3.1180417788
 O          0.4487031319       -2.7104179620       -3.4312291515
 H          0.6981776342       -3.1758933219       -4.2295262674
 H          0.0929832008       -3.4198710656       -2.8102287109
 O         -4.6866322755        2.0304075544       -1.9226383894
 H         -3.9984319113        1.4565403165       -2.2987163731
 H         -4.2828703587        2.4743530142       -1.1691098142
 O          3.9539239035        3.6774157755       -1.6102407719
 H          4.6202127042        3.5441360128       -0.9154555547
 H          4.1427790337        3.0255989792       -2.2937433584
 O         -0.5538490248        4.7335433604        0.4146032880
 H         -0.8479686352        5.3814070478        1.0546392008
 H         -0.2204884129        3.9803951303        0.9364957442
 O         -1.1762999694        2.0225909699       -0.7996642606
 H         -1.8507562860        2.6788305222       -0.5479674920
 H         -0.3505199613        2.5012110919       -0.9478013452
 O         -2.5260245498        0.4414487316       -2.5570671189
 H         -1.9278854912        0.2408312187       -3.3097055751
 H         -1.9922156061        0.9860908856       -1.9476303273
 O         -3.2996671706        3.3820540346        0.2578928156
 H         -2.8668416483        3.3562458427        1.1596242152
 H         -3.3790476358        4.3094081819        0.0305473527
 O         -0.5361869342       -0.2032135469       -4.1962502901
 H          0.1850134023        0.3608586554       -3.8709104484
 H         -0.2816022361       -1.1118877940       -3.9711491531
 O         -0.7267516906       -1.4748650319       -0.4435245195
 H         -0.2643463923       -2.2711155289       -0.1264894903
 H         -1.1243539084       -1.6850084002       -1.2911420951
 O          3.3393552943       -4.3976323801       -1.5718369536
 H          3.4826534188       -3.9138302768       -0.7509714489
 H          2.4642429912       -4.7870501842       -1.5136776882
 O         -1.7353127777        0.4015756971        1.3841930505
 H         -1.9608835727       -0.4115044420        0.9212606196
 H         -1.5247909318        1.0359835861        0.6779254337
