  612
      -1033.76907432
 H         -0.8000104362       -1.9931305506        0.0765866820
 C         -1.5954949371       -1.2519730978        0.0031767048
 H         -2.4284645536       -1.6732576872       -0.5410008382
 C         -1.0960309556       -0.0484751482       -0.7729935819
 H         -1.7218126758        0.8075362986       -0.5452427200
 H         -1.1540932322       -0.2775350479       -1.8282416215
 O         -2.0900596382       -0.9403554278        1.2914022639
 H         -1.3759581415       -0.4916320438        1.7743006712
 N          0.2951530174        0.2638252158       -0.4229196908
 H          0.9095004944       -0.5054852831       -0.7351844523
 H          0.3707079075        0.3267491313        0.6248799019
 H          0.5776512651        1.1870489482       -0.8205039827
 O          1.4847503570       -2.4262246659        1.6179442830
 H          2.4015701006       -2.2536782840        1.8456574427
 H          1.4505007322       -2.4130582316        0.6356742135
 O          0.3905036747       -0.1261972409        2.1829331143
 H          0.7248105479       -1.0442552895        2.0338176118
 H          1.0960244949        0.2948000748        2.6963052392
 O          0.4646399591        1.1243841375        4.9257245896
 H          0.6334647750        1.8228152837        4.2620505442
 H          0.0586966511        1.5328808156        5.7077578875
 O         -2.4442281908        4.0735579638        6.4346151326
 H         -2.6774080014        4.9283304131        6.0416348200
 H         -3.0904359447        3.4449646030        6.0706936399
 O          1.3749997502       -1.7752192892        4.5316513504
 H          1.9643896839       -1.1802354876        4.0303275161
 H          1.1775197376       -1.3065087931        5.3569522327
 O          0.4153595324       -0.8533255305       -3.3121470625
 H          1.3074158876       -0.7783221304       -2.9122148282
 H          0.5749303365       -0.9411080649       -4.2778393925
 O          3.9438772308       -2.8497681343       -1.7726230262
 H          4.4834826563       -2.1528474348       -2.1976527147
 H          4.5213807998       -3.3500214999       -1.1797099874
 O          4.6405601389       -5.9525859103        3.5025658888
 H          4.6970652448       -5.5956002777        4.3962834959
 H          3.7108763696       -5.9368724886        3.2612275604
 O         -0.9587867063        2.3121741945        0.8883481860
 H         -0.3628461973        2.5121084756        1.6301637840
 H         -1.8634709944        2.3099239262        1.2562507326
 O         -3.3430492766       -3.3530529278       -1.4461865166
 H         -3.9318097317       -4.0520492560       -1.7885870206
 H         -2.9751743810       -3.6967429267       -0.6168925724
 O         -1.8876659684        2.8196118391        3.6374975445
 H         -1.1671169332        3.1785439019        4.1797945481
 H         -1.7611319529        1.8695420301        3.6049860405
 O          3.0194235071       -0.1937863634        0.0811344213
 H          3.5314984144       -0.7865425183        0.6484570976
 H          2.9852030853        0.6786736008        0.5087913758
 O         -1.6208231285       -0.1358069056        4.0748956270
 H         -0.7480869537        0.2646792547        4.3452522913
 H         -1.4114461005       -1.0245368586        3.7344147083
 O         -0.9076248969       -2.6642593009        3.4709972930
 H         -0.8308034981       -3.1887560015        2.6532055043
 H          0.0138854034       -2.4334407411        3.7086498806
 O         -0.1538526214       -6.8362972575       -5.2703828030
 H          0.1640937547       -6.3764909427       -6.0714900430
 H          0.6478121289       -7.0027990900       -4.7533563184
 O          5.7257063387       -4.7552456886       -0.8342890642
 H          6.0718829988       -5.6088574887       -1.1336044373
 H          6.3968204266       -4.0831819071       -1.0653272441
 O         -2.7720165607       -2.2602763219       -7.1485875719
 H         -2.0589636392       -2.3245393528       -7.8106266591
 H         -2.4305384225       -1.5677161065       -6.5293145315
 O         -1.8800527212       -0.3788450595       -5.5583869825
 H         -2.5205909070        0.3483486632       -5.6546217060
 H         -2.0152740889       -0.7759884046       -4.6859540179
 O          1.6905525794       -3.9786589821       -3.6701126934
 H          2.3154894677       -3.3296331373       -4.0539910382
 H          1.9525362144       -4.8792761443       -3.9245220649
 O          2.0379790991        5.0820837465        2.4861032455
 H          2.9915717702        4.9027917083        2.3490966554
 H          2.0050249780        5.9835580191        2.8387886002
 O         -4.0294392894        0.6865441809        3.2949328122
 H         -4.4735800647       -0.0128706112        2.7695928017
 H         -3.1468980539        0.3361079516        3.4980274697
 O          1.6541813072       -5.2800972199        2.3581434445
 H          1.6909563499       -4.9659670436        3.2909032156
 H          2.4213225388       -4.8725877172        1.8868035106
 O         -5.2347638910       -0.9554473451        5.4707340406
 H         -4.6271706657       -1.5116067450        4.9496174739
 H         -5.7480934231       -0.4427429238        4.8106100240
 O         -1.8083825128       -2.3488938980       -3.5252833589
 H         -2.2627239685       -2.7346195257       -2.7592212860
 H         -0.9686663756       -1.9742079809       -3.2121226674
 O         -3.0794491151       -3.6496264912        1.3091445033
 H         -4.0352237745       -3.6272115200        1.1211405325
 H         -2.7903490728       -2.7334437227        1.4160337146
 O          2.2467500119       -4.9190332836       -1.1218587426
 H          2.0935208239       -4.5547242497       -2.0094808999
 H          2.5819828931       -5.8127635667       -1.2131711720
 O         -4.7822380979       -1.0481210464       -0.7620287496
 H         -4.2924793180       -1.7989771924       -1.1426201927
 H         -5.7113710773       -1.2349690532       -0.9351590823
 O          6.4290825725       -4.8925342717        1.7664926214
 H          5.8484905448       -5.3236689706        2.4209306166
 H          5.9095010939       -4.8344627991        0.9381452325
 O          6.0704333458       -0.6636857708       -0.0503833383
 H          6.4427246776       -1.4799881407       -0.4382224422
 H          6.8520210524       -0.0962690675        0.1191186335
 O         -1.5828118495        4.8953960193        1.9334738526
 H         -1.8709010885        4.0878389528        2.4028579571
 H         -1.0486340198        5.3692674372        2.6068573471
 O         -3.5360396404        2.4953385684        1.4542472230
 H         -3.8967472028        2.1704845508        0.6082557221
 H         -3.7778939155        1.8241929088        2.1292797362
 O         -3.1199124232        0.3815621469       -3.1697430469
 H         -2.2972837021        0.8753130335       -3.3247441008
 H         -3.5878400808        0.8698314121       -2.4762168679
 O          2.3203134537        1.0271994991       -4.8517821706
 H          2.3163346484        0.7117606875       -5.7725845029
 H          1.9933488939        1.9438251472       -4.8797987770
 O         -2.9595514489        6.2687528746        4.7011732467
 H         -3.3474300460        5.5938347771        4.0905561564
 H         -3.6354591848        6.9380406833        4.8060254056
 O          6.2893439038        5.8989295220        4.0190321159
 H          6.8622777094        6.3264985675        3.3744826164
 H          6.6781254531        5.0262860128        4.2313719198
 O          5.1293715195        0.8174385810        1.9428564111
 H          5.3054074929        0.1357013801        1.2677479948
 H          5.8785261620        0.7744908747        2.5487779576
 O          0.1317121465        8.3365226218        2.0829861642
 H         -0.7842422874        8.3206287885        1.7631404810
 H          0.6408622568        8.0055925464        1.3108512952
 O         -0.5440548396       -4.2932684979        1.2489934558
 H         -0.3613675053       -4.0709733214        0.3256164193
 H          0.2946653792       -4.6313795075        1.6355797889
 O         -6.1517916856        1.0043695197        1.0223165968
 H         -6.4399653031        0.6250623285        1.8656871109
 H         -6.7059807322        0.6281660341        0.3201929082
 O          2.0074957658       -6.6894393291       -3.5921251043
 H          2.8647998963       -7.0716557580       -3.3642121690
 H          1.4246292212       -6.8199471071       -2.8197400143
 O          3.6986304114       -7.1141990804        0.1436182542
 H          3.9074124129       -6.2900435950        0.6057437004
 H          2.8748978460       -7.4508534984        0.5165241609
 O         -0.4205895836       -4.2441375626       -1.5187430279
 H          0.0705707013       -5.0755976778       -1.4085763372
 H         -0.9360079005       -4.3964722810       -2.3278998420
 O          4.2998714305       -4.5330080038        5.9682058142
 H          4.1863881998       -3.8517658752        6.6427340500
 H          3.4072614668       -4.5910653665        5.5741927480
 O         -1.6496656824       -5.3296405303       -3.6995040884
 H         -1.0582215369       -5.8883905623       -4.2614459142
 H         -2.2768290954       -4.9304921444       -4.3226462576
 O         -5.1678911650        2.2265424039       -3.8623019923
 H         -5.9034441071        2.5929206281       -4.3984873538
 H         -4.8532457419        2.9382812077       -3.2692957538
 O         10.2373696890       -3.8139183504        1.6063679991
 H          9.6934734506       -4.5619643836        1.2364802199
 H         11.1483459021       -4.1024365057        1.5933390336
 O         -6.0618464126        5.9507419891       -3.8290856459
 H         -6.9042668483        5.7103066451       -3.4283037379
 H         -5.7422727326        6.7392250393       -3.3698513026
 O         -4.2511966194        1.6384190416       -1.0105176065
 H         -4.4875234376        0.7267457782       -0.7646029237
 H         -5.1001085878        2.1023625956       -1.1683319411
 O          5.6062518102       -1.3719153845       -3.2578584772
 H          5.3522505321       -0.4643316197       -3.5258356181
 H          5.6334663387       -1.8769768718       -4.0883067180
 O          4.3126976589       -1.8099076299        4.4435657199
 H          5.1252841777       -2.3623002715        4.5045703817
 H          3.8069063527       -1.9863216848        5.2635544917
 O          0.6715486246       -1.1251071487       -5.9115994266
 H         -0.1024261127       -0.5768630526       -6.1001422904
 H          0.3347936145       -2.0513353860       -5.9125467333
 O         -0.6700288427        1.5234741477       -3.4698815512
 H         -0.1964495872        2.1102936587       -2.8594264625
 H         -0.1822274877        0.6670143879       -3.4586463123
 O          5.4473372639        2.9473081058        0.3144883283
 H          5.2643962900        3.7157703290        0.8864288023
 H          5.3958003636        2.1796662429        0.9242942902
 O         -4.2609614052        4.3393973361       -2.5634325862
 H         -4.2410928312        4.5424756223       -1.6082662141
 H         -4.8897824448        4.9614917308       -2.9721250003
 O          6.5071414865       -3.2089016764        4.8558051099
 H          6.9229816117       -2.6209793993        5.5169857248
 H          6.0237298934       -3.8958338433        5.3356227119
 O         -6.5656479278        2.9991126946       -1.3347559300
 H         -6.4215959860        3.9445117367       -1.1289701055
 H         -7.2515652587        2.6975536279       -0.7033772613
 O          3.2326662849        4.4454267869       -0.3920852208
 H          2.6438257078        4.8359398620       -1.0665414335
 H          3.9615077565        4.0365253210       -0.8676330914
 O          7.4882480606        3.6377623003       -1.3445487340
 H          7.1054917497        3.3884803768       -2.2124823664
 H          6.8375731623        3.3954968510       -0.6609514185
 O          9.2335760176       -2.9726165680        4.0372157685
 H          8.2833380648       -3.1577754615        4.0705889014
 H          9.5609845999       -3.3282761224        3.1939370953
 O          4.4652738557       -4.6978087837       -3.6209030015
 H          4.4721211048       -5.5616491073       -3.1638727492
 H          4.1793228246       -4.0282966033       -2.9555654910
 O         -3.6956847654       -2.5718539464        3.9494890120
 H         -2.7810893774       -2.8691341989        3.8603431015
 H         -3.9145385408       -2.1024959988        3.1183740674
 O         -9.1593835901       -2.3432535164       -4.0363854878
 H         -8.2716771716       -2.1961521015       -4.4474311084
 H         -9.7772147265       -1.8205347635       -4.5471967589
 O         -0.1890724267        0.9398882211       -8.0008547647
 H         -0.4033357556        1.4550565677       -8.7776760948
 H         -0.5641748208        1.4239913665       -7.2341044478
 O         -7.6461768427        0.0873897298       -1.1124650638
 H         -7.0812923627        0.0115981994       -1.9117947130
 H         -8.2166657264       -0.7063561611       -1.1066993640
 O         -7.2309629119        2.9467333652       -5.3793747312
 H         -7.6597633080        2.0770676443       -5.4850733969
 H         -7.7465782893        3.4243004232       -4.6987329208
 O         -7.4394337119       -1.8891985497        1.7442664687
 H         -7.7001279556       -2.1673768482        2.6503593201
 H         -7.7046377679       -2.6112028846        1.1414753698
 O         -4.4996697927       -1.9150189354       -3.6108682182
 H         -3.8877819044       -1.1791206626       -3.4118680874
 H         -4.0493737401       -2.4852006449       -4.2358009699
 O         -1.8935140337        3.6229421319       -1.1922109692
 H         -1.4142694146        3.1842599738       -0.4511683039
 H         -2.6606748873        3.0742837916       -1.3823741858
 O          1.3632751306       -2.2507491113       -1.0181491622
 H          0.7843716047       -2.9432759687       -1.3837285571
 H          2.2635305163       -2.4295586123       -1.3382879721
 O          1.8436037779       -4.3943868427        4.8125244487
 H          1.7533174752       -3.4205811878        4.7495341074
 H          0.9991910507       -4.7195768948        5.1950828695
 O         -2.3595994429       -5.3315447387        3.4103536449
 H         -2.4534299050       -4.7411273375        2.6387038950
 H         -3.2348118427       -5.7648471352        3.5118955724
 O          5.3041092133       -0.4270863272        7.4845390186
 H          5.3636789389        0.0244612045        6.6215419989
 H          6.1531162977       -0.8567844117        7.6123732974
 O          1.8014694129        5.5286189225       -2.4491900773
 H          0.9967482561        5.0282124087       -2.6841567037
 H          1.5120188516        6.4483546327       -2.4763835809
 O         -5.1118849146        4.5785915293       -6.1019462241
 H         -5.8429601214        3.9448571547       -6.1287733989
 H         -5.4239446340        5.2708654605       -5.5033828142
 O         -8.5754754682        2.5071395954        0.4050544654
 H         -8.5390837960        1.5763854269        0.7095527937
 H         -9.4178781575        2.5678993606       -0.0871168842
 O          3.0462413324       -1.8672603704       -4.7402479868
 H          2.3407416914       -1.4900160991       -5.2847842615
 H          3.1111237738       -1.2976476270       -3.9512938594
 O         -0.4477388510        4.4194237021       -3.3128894803
 H         -0.9091211111        4.0584052519       -2.5289394689
 H         -1.1400822296        4.6022420817       -3.9600510492
 O         -1.2332839510       -2.4297576996        6.3597156368
 H         -1.1589800653       -2.4709871721        5.3957675614
 H         -1.9215341406       -1.7635640374        6.5499362667
 O          0.8718243188        2.6673512169       -1.4785623598
 H          1.7790783370        2.6822380599       -1.8365003139
 H          0.7867101777        3.3990454729       -0.8408141282
 O          5.4361424380        0.5416638518        4.8951948149
 H          4.9346242278       -0.2800534569        4.6898632031
 H          6.3224825335        0.4094211902        4.5139815817
 O          7.8577148022        1.1296320413        0.7702948892
 H          7.7599058902        2.0861690580        0.8415296784
 H          7.9039087770        0.7961174525        1.6808514439
 O         -0.3939588329        6.3739936029        3.8063078320
 H         -1.2552248970        6.5755214385        4.2105464355
 H         -0.1199160181        7.1624766128        3.2876236580
 O          0.5503234365        4.7821509221        0.2818048868
 H          1.1881937184        4.7527486719        1.0241916825
 H         -0.3234125671        4.7445292834        0.7157968535
 O         -0.6173134572       -5.0785078686        5.5781718921
 H         -0.9163986259       -4.3446466516        6.1281764368
 H         -1.2186810868       -5.1156818624        4.8161623021
 O          2.8608510962       -0.3031579646       -2.5220770793
 H          3.0301980101       -0.2967326081       -1.5564981879
 H          2.8201916443        0.6140438024       -2.8171961837
 O         -4.8055873976       -6.4210133784        3.2962873563
 H         -4.8213808723       -6.6082297543        2.3431165373
 H         -5.2803588484       -5.5698378424        3.3850587580
 O         -2.7951345715       -0.2224926749        6.4565937296
 H         -2.4459279953       -0.1273522912        5.5415090099
 H         -3.7568666307       -0.3051897608        6.3601332514
 O          4.4541620010       -7.1230131726       -2.4101204481
 H          4.1924231892       -7.1706300537       -1.4650826746
 H          5.3824238878       -7.3838831887       -2.4101084933
 O         -6.8238705636        0.3190505606        3.6709734902
 H         -6.7628974947        1.2893041238        3.8208789526
 H         -7.6566980717        0.0576315361        4.0877027825
 O         -5.6375672381       -4.6469104910       -4.6440557924
 H         -5.3173995676       -4.9159899527       -3.7581476408
 H         -4.8425940687       -4.6538746106       -5.2031945488
 O          4.6637440919        4.6408920553        2.2512016144
 H          4.5669542096        3.8468456705        2.8314539401
 H          5.1788123623        5.2679907813        2.7888097391
 O          6.8518624622       -2.2922006113        2.0930752318
 H          6.7788554677       -3.2656615431        2.1527206092
 H          7.5555137709       -2.1037396902        1.4269035159
 O          3.9143426230        3.7857583938       -6.1162954027
 H          2.9615521551        3.6976419521       -5.9665108536
 H          4.2204389575        4.3548737968       -5.4004926492
 O         -0.9565471968        1.6429714840        7.1799984891
 H         -1.6970384641        1.0165975634        7.0698320514
 H         -1.3647385437        2.5102121348        7.2617289884
 O         -0.2583465075       -3.5066376006       -5.4188079121
 H         -1.0390041525       -3.2262550700       -4.9096797465
 H          0.3969233500       -3.7483980994       -4.7265391753
 O          6.9620266776       -4.1033456268       -4.1915399401
 H          6.0145885112       -4.2881662505       -3.9574244236
 H          7.0673734537       -4.3939631994       -5.0967705160
 O         10.1967743640        3.5729667715       -0.8149346728
 H          9.2310753403        3.5951587666       -0.9233817564
 H         10.4745136923        2.8385749731       -1.3810671855
 O         -5.1712651339       -0.8553754309       -6.7715854209
 H         -4.7562110773       -0.0184484837       -6.4991850340
 H         -4.4461268286       -1.4150919293       -7.0860697875
 O          2.7853257231        7.6215329679        3.0330722572
 H          3.3277728680        7.5513598890        2.2294471411
 H          2.0774038321        8.2474249420        2.8564446375
 O          4.9403955545        0.9349039441       -4.4623538695
 H          3.9575962455        1.0078754390       -4.4721111805
 H          5.1757049707        0.9991510412       -5.4071278546
 O          3.6488553999       -4.3107187611       -6.2063488890
 H          3.7932738850       -4.5509195142       -5.2730412050
 H          4.4283009353       -3.7795899994       -6.4144320734
 O          7.8275065261        0.4830789192       -2.5869085046
 H          6.9265752195        0.7543189843       -2.3207940603
 H          7.7701095698       -0.3751615292       -3.0389674531
 O         -4.6902340089       -6.5326077259        0.5464046821
 H         -4.7946080893       -7.3399846918        0.0442866200
 H         -3.7200637943       -6.3371674883        0.5452573747
 O         -4.4617342019        2.5169952810        5.2505454330
 H         -5.4182720987        2.6356570739        5.2536845210
 H         -4.2888407919        1.7899199134        4.6205041648
 O          3.0199742040        1.0316859157        6.0184362311
 H          2.6651487130        1.9314581807        6.0371907301
 H          2.3785205820        0.4699921105        6.4623915403
 O         -8.5804705605       -3.8506489136        0.3203778913
 H         -9.1700401805       -4.0359354763        1.0773006752
 H         -8.0842403106       -4.6562845465        0.1116843891
 O         -2.0586069520       -6.3301078995        0.4959725244
 H         -1.7785231510       -6.9924389281        1.1415895238
 H         -1.5965103028       -5.4992019720        0.7693783940
 O         -6.6719180412       -3.1568218106        6.0053775552
 H         -6.0313383192       -3.8579394595        5.8818333167
 H         -6.1741680464       -2.3095104176        5.9615613074
 O         -4.2096985932        4.3978740690        3.3307654411
 H         -4.2648713792        3.7727999260        4.0816139481
 H         -3.9612877195        3.8307409754        2.5789258214
 O          7.8289890158       -1.4784529292        6.4474482926
 H          8.7248671037       -1.7690620578        6.2673727261
 H          7.8583841678       -0.5007835661        6.4597991908
 O         10.5247793860        0.2654751338        1.5209092758
 H         10.3689918537        1.2342040982        1.5711336819
 H         11.0540378026        0.0996506350        0.7299822807
 O          7.1545932481       -2.6235504251       -1.4379660602
 H          8.1189769006       -2.4805552368       -1.4322612153
 H          6.7877485496       -2.2093573415       -2.2369355856
 O         -5.6509435766       -3.9327312966        0.5211687758
 H         -5.9590397385       -3.5646747651       -0.3305955538
 H         -5.5398984750       -4.8868065533        0.4002383226
 O          0.8231988856        2.7691233708        2.8658092141
 H          1.0991039198        3.6860861473        3.0213310765
 H          1.5155036180        2.4114742574        2.2712484025
 O         -9.1421004033       -0.1824496944        5.1150080174
 H         -9.8553204794        0.1750603412        4.5286503604
 H         -9.3031046038        0.1295937659        6.0038619791
 O         -4.1851442925        4.8343150100        0.1231956972
 H         -4.8915987655        4.3525148617        0.6162988726
 H         -3.3504229434        4.5387781461        0.5031653325
 O        -11.8436142888       -1.9429952876        2.1978680263
 H        -11.2183876033       -2.6819941091        2.3052209275
 H        -12.7139525552       -2.3005908015        2.3736448116
 O          2.7560314461        0.1992691531        3.3806813169
 H          2.8650538239        0.5803603770        4.2708440525
 H          3.5762519212        0.3722169510        2.8949985811
 O          3.6995350433       -4.4214244142        1.0128305882
 H          3.9510220767       -3.5119262536        1.2668932026
 H          3.2266362001       -4.3784630698        0.1590673350
 O          3.7608246906        6.0752790768        5.1745898518
 H          3.3441250760        6.7077585441        4.5743785330
 H          4.6978358017        6.0753322842        4.9356690550
 O         -2.1195915783        6.4007392713       -1.5188988908
 H         -2.0788803628        6.7806171248       -0.6110091363
 H         -2.0667459346        5.4342578833       -1.4133898322
 O         -9.0485642280        0.1452165046        1.4129391727
 H         -9.7440753823       -0.1176839137        0.7766016669
 H         -8.4275445979       -0.6129342570        1.5215305988
 O          5.3719219681        1.1920842582       -1.7033162774
 H          5.3714249383        0.3541636249       -1.1876402625
 H          5.4999314693        1.8814425506       -1.0358600449
 O          1.0139830816       -5.2368276810       -7.1215978948
 H          0.5159094196       -4.5048449479       -6.7242240315
 H          1.9340214677       -5.1206424515       -6.8573198001
 O          9.8183953775       -2.4415579422       -2.0829331997
 H          9.5555659160       -2.0197283133       -2.9126993773
 H         10.3547991390       -1.8051085665       -1.5842449425
 O          7.4581350401        0.0111613407        3.2669856886
 H          8.3600994131       -0.0763994453        3.6486628546
 H          7.2147537787       -0.8931249369        2.9776781972
 O          1.3436995468        7.3088391977       -0.0629688530
 H          0.9289687715        7.6646351384       -0.8628791858
 H          1.0376397997        6.3702547260       -0.0111531805
 O          7.0931475468       -7.0838945826       -1.5703063705
 H          7.4177593277       -7.4414085314       -0.7404377719
 H          7.8122137238       -6.5383534650       -1.9256985241
 O          8.2474979490       -1.6624906785       -4.2424395874
 H          7.7772128276       -2.5145046581       -4.2551947054
 H          8.0382200298       -1.2237208707       -5.0754771303
 O          1.0399601218       -7.4887748502        1.0681355360
 H          1.2726405576       -6.6618972702        1.5467498219
 H          0.3159278827       -7.8488319622        1.5972137948
 O          5.4739952992       -2.2192275683       -5.8680140020
 H          5.9893597940       -1.4572410136       -6.1730527708
 H          4.5739482734       -1.9098779461       -5.6477840067
 O          8.4098488364        1.8038336635       -4.8540725155
 H          7.8465456811        2.5859449275       -4.8239909405
 H          8.1966440491        1.3357306674       -4.0176746124
 O         -2.7464164220        4.2367368215       -4.8410086217
 H         -3.4939974190        4.4312181371       -5.4336507598
 H         -3.1511032801        4.1906424187       -3.9573467847
 O          0.3289585348       -6.9359175858       -1.4505256802
 H          0.5896174245       -7.1642803620       -0.5294739445
 H         -0.4711761851       -7.4245883203       -1.6538957779
 O          0.7918881740       -0.7687997392        7.0688289794
 H          0.0947344517       -1.4534617619        6.9951569802
 H          0.3254259628        0.0435022159        7.2981709569
 O          6.8375545990        6.3691235673        1.3106334379
 H          7.3095940863        6.4623130947        0.4614489840
 H          5.9228649533        6.6197046670        1.1366585202
 O          4.1773076200        4.9698143313       -3.5640825251
 H          3.2507899349        5.2183145410       -3.3840844882
 H          4.6846728755        5.6200556616       -3.0343149326
 O          7.5713448611        3.7455358147        1.7552806239
 H          7.3596102189        4.6793363345        1.5842419530
 H          7.2155614685        3.5358471997        2.6340371204
 O         -8.3827414694        3.7984278049       -3.1017832270
 H         -8.9382285563        2.9946808172       -3.0875865519
 H         -7.6136378032        3.5418482590       -2.5408654864
 O          8.6956044180       -5.6347367068        0.5405945608
 H          7.8651355723       -5.4269627680        1.0188340761
 H          8.6028732893       -5.3042379273       -0.3664510061
 O         -1.0182819060        2.4295943643       -5.9310861927
 H         -1.6963797337        3.0948100663       -5.7235409757
 H         -0.8905705748        1.9659206131       -5.0700971875
 O         -7.3511656182       -5.9818861700       -0.9956762716
 H         -7.7141886390       -5.5960874620       -1.8168333416
 H         -7.7757366271       -6.8297259277       -0.8710684332
 O         -6.8175027414       -2.2453056628       -5.1902988611
 H         -6.3677641561       -3.0930075637       -5.0370649942
 H         -6.2372035101       -1.7350692813       -5.7905060514
 O         -4.8735708937       -5.4183850276       -2.2001955078
 H         -5.6224085369       -5.7060729169       -1.6603047575
 H         -4.1714013946       -6.1173601491       -2.1544071445
 O         -4.8374694021       -1.3907343232        1.8822481608
 H         -4.6304528289       -1.1650436377        0.9552474244
 H         -5.8010796997       -1.5555341926        1.8972168110
 O         -4.6520467465        7.3830109587       -1.8914699973
 H         -3.7527261194        6.9958520917       -1.9004930933
 H         -4.7031406068        7.8881386248       -1.0712937636
 O          0.0468867630        7.6706359821       -2.4200849965
 H         -0.2451019361        8.3802169052       -2.9899518221
 H         -0.7577292260        7.1491016001       -2.1813267256
 O         -6.3790186375       -0.0397869828       -3.3934368247
 H         -5.8222925166        0.7650758780       -3.4783100560
 H         -5.8164885330       -0.8021114769       -3.6207831030
 O         -8.0089817745       -5.8186185248        2.8090522328
 H         -7.4204205290       -5.0890073887        3.0564284611
 H         -7.5783953348       -6.6139973371        3.1236969358
 O        -11.1902979709       -0.4600185146       -0.0627550656
 H        -11.5724370892       -1.0169764003        0.6325482040
 H        -10.7075473030       -1.0496001118       -0.6722228138
 O         -8.1797916652        0.3794919258       -5.2549222375
 H         -7.9700741082       -0.1214046445       -6.0442949881
 H         -7.4804766475        0.1288532602       -4.5952198329
 O         -3.1845737489       -4.4631996637       -5.8113808848
 H         -3.0143814070       -3.6255538405       -6.3216310642
 H         -2.8652446679       -5.1722848124       -6.3710492060
 O        -10.0507815930       -4.0159077203        2.5894680978
 H         -9.4870988984       -3.4833349630        3.1974121014
 H         -9.7764626227       -4.9241481217        2.7692485965
 O          3.3312359980       -2.1040817644        6.9266692801
 H          2.4743392110       -1.7475318569        7.1825403332
 H          4.0099156049       -1.4758971894        7.2640724796
 O         -4.8002480435        7.3428594931        0.8641059789
 H         -4.6384131763        6.4261489202        0.5498417616
 H         -5.3074809155        7.2164384970        1.6921702677
 O         -5.9282801079       -3.9910614882        3.2268925252
 H         -5.9038227055       -3.8231892200        2.2672161917
 H         -5.1770802645       -3.4957110509        3.6000004357
 O         -9.3752874573       -1.9278903212       -1.3710326182
 H         -9.2948818581       -2.1300692965       -2.3207654099
 H         -9.0765703970       -2.7068643394       -0.8672332151
 O          2.4631151171        0.2431570246       -7.4796670561
 H          2.4244170049       -0.7248913753       -7.5566243629
 H          1.5787811746        0.5504631405       -7.7365603926
 O         -6.4687366797       -2.9008673956       -1.8756164124
 H         -5.7852552659       -2.6945518138       -2.5340934562
 H         -7.0735599985       -3.5211191037       -2.3049135532
 O          2.2471010231       -2.5264968797       -7.7817555518
 H          2.4550575466       -2.9439668125       -8.6177327649
 H          2.6314699716       -3.0969194478       -7.0908024585
 O         -9.7586123994        4.9083686972       -0.9376021329
 H         -9.2565577423        4.6927960615       -1.7431883071
 H        -10.4642341046        4.2565470910       -0.8781475552
 O         -1.1774820458       -7.6313915247        2.7369712185
 H         -1.4690940399       -6.7494000498        3.0743410256
 H         -1.3084859428       -8.2466844645        3.4566352309
 O          5.3113966775        6.6979117540       -1.8895183665
 H          4.8746595320        6.8827921297       -1.0415271693
 H          6.2633260044        6.6848129601       -1.7244615156
 O          8.6721735709       -4.9479929428       -2.2076703059
 H          8.0562894827       -4.6532493095       -2.9028291038
 H          9.3038977559       -4.2192261861       -2.1209832421
 O          6.2819295503        3.1365837893       -3.6878490908
 H          5.6378958746        3.8467181415       -3.7808005612
 H          5.8004984332        2.2998002791       -3.8754823508
 O          4.9304968795        1.4474649069       -7.0997555123
 H          4.6776392058        2.3631484309       -6.8790332038
 H          4.1086127152        1.0215577217       -7.3889503865
 O          2.5862419361        3.7149989443        5.6197570028
 H          2.9796014817        4.6077310876        5.5336313735
 H          1.6250300557        3.8379325946        5.5127588778
 O         -6.6197946167        5.6440795502       -1.0408081372
 H         -5.9234427041        6.2949529863       -1.2342466708
 H         -7.0771579892        5.9311718268       -0.2476425845
 O         -6.1312711745        3.6270627494        1.4763180125
 H         -6.1722412284        2.6744951680        1.2304962918
 H         -6.9850659387        4.0434010222        1.2638936373
 O         10.3206219810        1.3719365274       -2.4864107265
 H         10.3432481870        1.5784936531       -3.4249568848
 H          9.3973626886        1.0854354152       -2.3131078694
 O          7.9384545669        6.2162683846       -1.1427507292
 H          7.7929331451        5.2399132238       -1.2496146285
 H          8.8708101408        6.3624716495       -1.3016070468
 O          5.3664168272        2.7485163805        6.5031560405
 H          4.7613335926        1.9995270191        6.3782315517
 H          4.8254955165        3.4934311100        6.7713288317
 O         -8.3063555834        5.2727736933        1.3130459823
 H         -8.8594178863        4.9393236110        2.0278780041
 H         -8.8534731226        5.1847795781        0.5019277592
 O          6.9515365298        3.3022352461        4.3350770104
 H          6.3729894079        3.0265565040        5.0702978474
 H          7.8339281335        2.9162716878        4.4904775258
 O         -9.3756117648        1.3070126304       -2.8722216804
 H         -9.1634294314        0.9028223388       -3.7221573116
 H         -8.7543301743        0.9249624197       -2.2151542910
 O         -8.4165371749       -2.5877718657        4.1106996259
 H         -7.7703794506       -2.9452632746        4.7644518240
 H         -8.7711400640       -1.7862393008        4.5300544384
 O         -6.8849829215        2.9543171240        3.9911676827
 H         -6.4308131515        3.2938840152        3.1919863716
 H         -7.8306188836        3.1075294016        3.8168171182
 O          4.0668691046        2.5932694910        3.6898075515
 H          4.6279772555        1.9365583930        4.1435612903
 H          3.4820795058        2.9810867456        4.3708617249
 O         -9.3767984418        3.1786897462        2.9205290184
 H        -10.0714882216        2.5655899297        3.1751832642
 H         -9.1016919224        2.9197693699        2.0144012587
 O          7.8155125494        1.2140051760        6.6375613735
 H          8.4687793394        1.7636382752        6.1959018674
 H          7.0182869352        1.7421438608        6.7728912040
 O         -0.4719293715       -1.8554065930       -8.5070316021
 H          0.3768030928       -2.1947355961       -8.1919894708
 H         -0.4262408001       -0.8962904286       -8.3848838530
 O         -0.0457066284        4.1029312825        5.2212887436
 H         -0.0278994658        4.9643192505        4.7725846740
 H         -0.7951161878        4.1356909237        5.8460011068
 O          3.9495968246        6.8940228109        0.5422177716
 H          3.8263947424        5.9239694392        0.4970387058
 H          3.0916722021        7.2349521138        0.2255065026
 O          4.2625266562       -1.9486465332        1.8212387274
 H          4.1400981336       -1.8614394648        2.7895342492
 H          5.2431779312       -1.9971810996        1.7290559649
 O          7.1537676796       -0.0444998990       -6.3812849605
 H          6.5396799721        0.4606592261       -6.9309736480
 H          7.6836097022        0.6393820386       -5.9163619572
 O         -6.1132587916        6.3415605818        2.9479059628
 H         -6.9094605334        6.0228290565        2.5084418771
 H         -5.5401727892        5.5634625697        3.0830500733
 O         10.1452370295        2.9289809769        1.7968336085
 H         10.4185030593        3.2203644387        0.9045079644
 H          9.2185432252        3.2372353832        1.8421532632
 O          8.8741819290       -1.6887989597        0.5352582275
 H          9.2980915082       -0.8608553839        0.8167285016
 H          9.4766977243       -2.3992349226        0.8006643908
 O         -2.8005799756       -7.0034192758       -2.0120240569
 H         -2.3259905736       -6.4502487566       -2.6756864358
 H         -2.4403969396       -6.7406248193       -1.1463827187
 O          3.2726921092        2.5275368177       -2.5786442994
 H          3.5782495212        3.2856005723       -3.0937833746
 H          4.0618017376        2.0067981880       -2.3248944028
 O          1.3119470437        3.5019035693       -5.2155578769
 H          0.5481728579        3.1835501669       -5.7341278887
 H          0.9032804904        3.8813519451       -4.4222511031
 O        -10.8303352411        0.6066979496        3.2775868024
 H        -10.1235468658        0.4921765041        2.5929635423
 H        -11.4525851857       -0.1038079325        3.0876958841
 O        -10.9355697494        2.2394075075       -0.8613383804
 H        -11.2765380472        1.4310302570       -0.4547040432
 H        -10.6009193458        1.9498148253       -1.7248819569
 O         -2.1720780462        7.3567765562        0.9727560849
 H         -2.0633272912        6.4745942731        1.3732375597
 H         -3.1320832945        7.5538689538        1.0319768129
 O         11.5259016441       -0.4876498731       -0.9975232385
 H         11.1357460553        0.2276892123       -1.5449438179
 H         12.4448449742       -0.5654462038       -1.2516895540
 O          2.7801230958        2.2443150636        1.2014106447
 H          3.4114134777        2.2723363190        1.9387690868
 H          2.9247051096        3.0366731803        0.6539002750
 O         -3.8446341963        1.4265038893       -5.9795585859
 H         -3.8675975925        2.2166827895       -6.5199076137
 H         -4.2154955025        1.6802480715       -5.1002994522
 O         -8.0592989109       -4.7434062292       -3.2912495114
 H         -7.3716656657       -4.8586071897       -3.9646398576
 H         -8.6611687895       -4.0630271134       -3.6283187937
 O          9.4732797296        2.2818242585        4.5186856254
 H          9.9125498682        2.6578159885        3.7443712770
 H          9.7080806709        1.3404617806        4.5025495678
 O          9.9306329994       -0.4139484267        4.0612892695
 H         10.3443511954       -0.2742185422        3.1904420200
 H          9.7779095504       -1.3844219024        4.1312982707
