  129
       -218.87556897
 O          5.5558116908        1.5257936016       -1.3609745609
 H          5.8951074407        2.3059976313       -1.8003572072
 H          4.7528841045        1.2425506851       -1.8712358092
 O         -1.4817558530       -1.3018959118        2.8291143721
 H         -1.5412363492       -2.2666716928        2.8939183046
 H         -1.6894472941       -1.0984526379        1.8860050066
 O          1.3798766981        2.1522772919       -3.5777901418
 H          1.0415992653        2.8083553923       -2.9487950141
 H          0.7105173705        1.4538133526       -3.6476646833
 O         -2.2346608416        2.9112989780       -1.8392077563
 H         -2.3966947151        2.5467041074       -0.9407587962
 H         -2.7656438589        2.3681477415       -2.4453915073
 O         -3.9462952139       -0.3349162006        3.4847574386
 H         -3.0492706988       -0.6995274669        3.3567954385
 H         -3.8189004204        0.5787096726        3.7858286617
 O          2.6977102281       -1.2785393344        4.3470795412
 H          2.7010787785       -1.6823002176        5.2152667062
 H          3.5954424150       -0.8813719806        4.2250001020
 O          0.7474295021        0.2065083629        3.1132251272
 H         -0.0158572981       -0.4048838235        3.0418775381
 H          1.3830263405       -0.2384118374        3.6998618128
 O         -3.1697562834        2.2239639803        4.2522914016
 H         -2.3278515086        2.2780267347        3.7492607869
 H         -2.9643059065        2.4071925492        5.1693191183
 O         -4.5335989005        3.9723724144        2.6295137716
 H         -5.0450420081        3.3622510095        2.0767729934
 H         -4.1225156384        3.4164342400        3.3128788690
 O         -2.8904173052        5.2995012174        1.0798427025
 H         -2.9059200230        6.2029963377        1.3976952016
 H         -3.4862760405        4.7882883986        1.6920952485
 O         -2.7727416439        1.8853708004        0.5797359588
 H         -2.2761988739        2.1430502011        1.3750254332
 H         -3.7331595515        1.9909953549        0.7771110083
 O          5.8709017899       -1.5293242821        1.4799877819
 H          5.3716042446       -2.3414775533        1.2949801146
 H          6.4904133402       -1.4287982007        0.7422151057
 O         -1.2139438132       -2.7570024846       -1.4484430837
 H         -1.7096524433       -2.1080807101       -1.9637225411
 H         -1.8743725671       -3.3254572122       -1.0202473952
 O         -5.8512196464        2.9443483605       -1.5924029645
 H         -6.6952519699        3.3190838285       -1.8464141121
 H         -5.2292079119        3.7215553039       -1.4622699314
 O          3.4359850144        0.7184916813       -2.6918472456
 H          3.7664489005        0.0806452971       -3.3758355001
 H          2.7654384309        1.2898745830       -3.1274929537
 O         -4.3586635970       -1.8676754452       -0.5661396663
 H         -4.1552207331       -2.7841227742       -0.3246579664
 H         -4.9344818258       -1.4993508615        0.1300536003
 O         -2.1465815587       -0.6772149529        0.3558972971
 H         -2.4249724048        0.2635588947        0.4093904885
 H         -2.9157972682       -1.1579762215       -0.0119292065
 O          4.1865914695       -1.2905346671       -4.1904178282
 H          4.5736209159       -1.9049800312       -3.5393933234
 H          3.3175410634       -1.6454651693       -4.4296384917
 O          4.9065058019        0.9932846369        1.2742697479
 H          5.2025494993        1.3312273888        0.4143065072
 H          5.2447778175        0.0739313746        1.3235914651
 O         -2.8965355321       -0.8066345467       -2.6907020628
 H         -3.5441554580       -1.2178818558       -2.0981794723
 H         -3.3178747143        0.0225091461       -2.9616351693
 O          2.8460292654       -1.3068075576       -1.0250175838
 H          2.8926089882       -0.5698996430       -1.6651201045
 H          2.2334531336       -1.9781901412       -1.3936875711
 O         -1.0214216982        2.3086515894        2.6814468182
 H         -0.3096543457        1.6982273935        2.9313401116
 H         -0.6201617796        3.0585962859        2.1935380870
 O          5.1138809718       -0.3066979329        3.8824293995
 H          5.1226390520        0.5656119620        3.4767344782
 H          5.5466966557       -0.8932437937        3.2436034056
 O          0.1884372880        4.0193196543       -1.8162121175
 H          0.2180359780        4.8840313777       -2.2287196533
 H         -0.7221548447        3.6765301483       -1.9361966429
 O          4.3645071158       -3.6597890223        0.5571624593
 H          4.7243200105       -3.4637094518       -0.3271118756
 H          3.6768480375       -4.3384425617        0.3757497559
 O         -1.6165150195       -4.0224694808        2.3605893288
 H         -1.4029179636       -4.7875225209        2.8950510958
 H         -0.8085886893       -3.8168148358        1.8130192021
 O         -5.6231626527       -0.6468034320        1.5149000638
 H         -4.9627676195       -0.5559239196        2.2601377744
 H         -6.4321783832       -0.9584114330        1.9219049350
 O          2.4694957002       -2.0716983288        1.6925580842
 H          2.6059390273       -2.0152681741        2.6476096805
 H          3.1941185313       -2.6093718065        1.3122532605
 O         -0.3237106419        4.2498825155        0.9938135660
 H         -0.0499588686        4.1695492628        0.0686843552
 H         -1.2000525318        4.6759733979        0.9818134975
 O          1.3755786312       -3.1935861762       -2.2355415386
 H          0.4292424875       -3.1284521483       -2.0280510839
 H          1.4690207115       -2.9194160487       -3.1605537683
 O          5.0729565189       -2.5020159131       -1.8582612689
 H          5.8446180920       -1.9690437407       -1.6154325547
 H          4.2902569922       -2.0205818810       -1.5051990725
 O         -4.1786607928        1.6053605566       -3.2456953653
 H         -4.4393939568        1.8280156016       -4.1402118125
 H         -4.8610724102        1.9824732237       -2.6484826678
 O         -3.0654665480       -4.2051615993        0.0834910747
 H         -2.6381750838       -4.1341628904        0.9648447841
 H         -3.2199270187       -5.1363821557       -0.0783872004
 O          2.2322718422       -5.0420632426       -0.2792109930
 H          1.5039907924       -4.6311212204        0.2147177248
 H          2.1610321804       -4.6631118853       -1.1653422973
 O          0.3563724293       -3.3410255048        0.8283152157
 H          1.1028363695       -2.7816716622        1.1607817902
 H         -0.0203822595       -2.8945441207        0.0577045142
 O          1.4587747076       -1.8604469074       -4.6190424670
 H          0.8689627318       -1.1670846121       -4.2461558224
 H          1.2074187369       -1.9788847590       -5.5350300831
 O          7.0114141634       -0.7398621582       -0.9367230726
 H          7.8912541486       -0.6633862222       -1.3064144200
 H          6.5455898256        0.1026574813       -1.1143065980
 O         -0.2064087539       -0.1396853034       -3.3805582719
 H          0.0631127229       -0.2156653597       -2.4357798685
 H         -1.1442294763       -0.3698013838       -3.3875435680
 O         -5.3927517713        1.9955707578        0.9172336655
 H         -5.6064760314        1.0549575005        1.0648321259
 H         -5.6955610855        2.2352267159        0.0233358741
 O         -4.0757290618        4.8299196463       -1.3456709478
 H         -3.7927361932        5.0977626742       -0.4522380136
 H         -3.3296053558        4.2959638772       -1.6773210022
 O          0.3334034631       -0.3131785113       -0.8698664666
 H          1.0248420334        0.1313277559       -0.3396390499
 H         -0.4566653399       -0.4086316261       -0.3257790112
 O          2.0575841359        1.0562678574        0.7784460014
 H          2.9901564441        0.7958960718        0.8347935593
 H          1.6520157422        0.7373319315        1.6000248546
 O          2.7456099068        3.5674891921       -0.4090511985
 H          1.9476458755        3.6714066267       -0.9316860526
 H          2.6051549358        2.7434657260        0.0809999382
