  459
       -779.14698241
 O         -0.8346606667       -3.2353405030       -5.9621150398
 H         -0.7065567921       -2.5131413489       -6.5903753012
 H         -0.3576437756       -2.9476008182       -5.1507447019
 O          3.7490490246       -2.5004834985        4.4174850734
 H          4.3307004531       -2.1457159506        3.7124840526
 H          4.2597012664       -2.3447867177        5.2254037644
 O         -0.1737030186        4.8491012871        3.0535804156
 H          0.2496548624        3.9927210259        2.8883148976
 H         -1.1275131143        4.7201529283        2.9681758426
 O          1.6117147279        2.4959627765        5.0664872123
 H          1.8511345863        2.6789900242        4.1300125372
 H          2.3860541729        2.0682614383        5.4688432766
 O          4.4902607764       -6.5129365831       -0.9443509888
 H          4.9443155899       -5.6639790105       -1.1420924390
 H          4.1903833718       -6.8591679721       -1.7898546878
 O         -3.1409563753       -4.4329958168       -3.4756221133
 H         -4.0156194890       -4.8454623973       -3.3288691074
 H         -3.2798876942       -3.6490147396       -4.0462889745
 O          4.9210564225       -2.0661778266       -4.1379961029
 H          5.6772523928       -2.6937846671       -4.2440334574
 H          5.1515920780       -1.2410421677       -4.6046545405
 O         -3.1939982238        1.6644898354       -1.8275963438
 H         -3.2356395469        2.1673764239       -0.9921956835
 H         -2.9841881641        0.7364923877       -1.6083190819
 O          7.2563022119        0.9070505661        2.3299960682
 H          7.1697534725        1.8575834177        2.5449060385
 H          8.1817017106        0.8153612763        2.0500221305
 O          4.0595574225        7.1018180530       -1.6031898829
 H          4.4309269289        7.0433826218       -0.7145040063
 H          4.2304463961        6.2523196572       -2.0287530952
 O          1.5410206737        4.2541442353       -0.3326793855
 H          1.1235001851        3.5031888939        0.1320089363
 H          1.4901980231        5.0214029814        0.2770704017
 O          1.9455499844       -3.5494919022        0.4088169991
 H          2.0475241305       -4.5266029086        0.3211197196
 H          1.6141315148       -3.3938323446        1.3123811536
 O          2.7910953931       -0.9890300398        2.0571814361
 H          3.4806723692       -1.3979137476        1.5025827229
 H          2.3075004038       -1.7311112358        2.4765576567
 O         -1.8068294697        6.3654148699       -2.9242764364
 H         -1.1418814220        5.6842628184       -2.6768017415
 H         -1.3603991149        7.2091054722       -2.8550455565
 O         -2.5153233060       -0.9339451428       -1.5390064551
 H         -2.0127138955       -0.8824589071       -2.3761193557
 H         -3.3855310031       -1.2971729528       -1.7908274457
 O         -7.8691428702       -4.2853185237        1.7902359940
 H         -8.8281042311       -4.2101663381        1.7435092846
 H         -7.5617993482       -3.3649326807        1.9504191017
 O         -0.9343607899        1.6790989332        5.8596788924
 H         -1.1311744793        1.7562797084        4.8971376448
 H         -0.0094511832        1.9541505902        5.9133043319
 O         -0.1107779830        4.3954931216       -2.4393491851
 H          0.5390863762        4.3254418238       -1.7120949463
 H         -0.3644393057        3.4938208802       -2.7264575224
 O         -2.5513163900        5.0377941345       -5.2738249857
 H         -1.7829391825        4.5688716199       -5.6232372506
 H         -2.2432907760        5.6125748186       -4.5558369848
 O         -4.4368130264       -2.4743421183        0.3734038929
 H         -4.5857050555       -1.5349988115        0.1523241321
 H         -3.7503554613       -2.8027362475       -0.2416935827
 O         -3.4116964789        2.7455419939        0.6521370753
 H         -3.1172065918        1.9279273487        1.0874656748
 H         -4.3899520372        2.7554294311        0.7446622214
 O         -4.9636623961        0.1879224962        0.2732507828
 H         -5.3495825633        0.7193412734       -0.4504838627
 H         -5.4635124271        0.4166791151        1.0764108733
 O         -2.8300147113       -3.6558121666        2.3249247439
 H         -3.4400628435       -3.2287692772        1.7050266548
 H         -2.0128925787       -3.8747568459        1.8227028581
 O          5.6637958284        4.3143839333       -2.5572715298
 H          5.1754050245        3.8515985460       -3.2581209734
 H          5.1396674385        4.1578488662       -1.7483136034
 O          8.0221448069       -4.0321657732       -0.2323199270
 H          8.8791813806       -3.9030986182       -0.6420474276
 H          7.8055848814       -3.1736704259        0.1927383009
 O         -1.8035898130       -6.8613267357        0.5652036903
 H         -2.0095601870       -6.9690692897        1.5084791377
 H         -2.6628398790       -6.6271807868        0.1656899799
 O         -2.0145510209       -3.5655806802        4.8761301884
 H         -1.5568172035       -4.4289895493        4.9100683825
 H         -2.3141083631       -3.4752258081        3.9526371047
 O          2.8858337457        4.7055192743       -2.8814697301
 H          2.2856933328        5.3917583900       -2.5359102632
 H          2.6523679892        4.6230033055       -3.8093459822
 O          7.5094966653       -0.1277562984        4.8044355115
 H          6.7653502573       -0.6169794504        5.1954680084
 H          7.2446151549        0.1311193657        3.8979172752
 O         -3.7703256524       -2.2129973823        6.5122076170
 H         -3.1842088649       -1.5555807759        6.9107567676
 H         -3.1780764322       -2.7923177880        6.0038905912
 O         -1.4888608141        4.7345312315        0.1931936129
 H         -1.0327542364        3.9357142228        0.4924614066
 H         -2.1154782408        4.4657752957       -0.5133601036
 O         -6.5931667274       -3.9857980122       -0.5709132892
 H         -5.8431609492       -3.4198650246       -0.3070530179
 H         -7.0131243934       -4.2880077178        0.2566139048
 O          1.1978457627       -2.9489764227        2.9546988923
 H          1.3977527188       -3.4380273739        3.7775139864
 H          0.3753843764       -2.4504153315        3.1397189052
 O         -8.4196665852        1.2280809262       -2.0742505697
 H         -7.4474423348        1.2527616169       -2.0552638156
 H         -8.7244239872        2.0644027346       -1.6873743961
 O         -1.0171745157       -1.7728507988        0.6374326151
 H         -0.7960503553       -2.7156612116        0.5912374233
 H         -1.5998145615       -1.5605302762       -0.1140294041
 O          5.6804401846       -4.1641623977       -1.4384160227
 H          5.2842839303       -3.4170874677       -0.9493760900
 H          6.5742803620       -4.2505224337       -1.0329469786
 O          0.7390216248        0.6724484954        2.7540351779
 H          1.5370211316        0.1423569368        2.6080279200
 H          0.8541096640        1.1103234933        3.6044435284
 O         -6.9510588986        4.1791759836       -2.0128815377
 H         -6.4770490602        4.7916987118       -1.4337188542
 H         -7.8403832598        4.0898243743       -1.6386693507
 O          7.0805567573        2.5504987382        5.4067649557
 H          7.2727111723        1.5959112699        5.3489721874
 H          6.1161022045        2.6562821077        5.3930951866
 O         -5.3742787223        5.2288770182       -0.0456826062
 H         -4.7897590663        5.8101512352        0.4755035827
 H         -5.6643692634        4.4960137592        0.5299560320
 O          2.6946258115       -2.9742245039       -5.2744401531
 H          3.5092782133       -2.8267960986       -4.7541882471
 H          2.6736932607       -2.2175417810       -5.8853542143
 O         -6.2609989581       -3.0867656445       -4.1659191727
 H         -7.2331788869       -2.9680049548       -4.1304383231
 H         -5.9948311881       -2.7416593290       -5.0463698628
 O         -4.9950950394       -1.4825221775       -2.4694043187
 H         -4.7717747367       -0.7415077565       -3.0621915855
 H         -5.4049413994       -2.1589342371       -3.0595626144
 O         10.8769702956        0.4363694309       -1.9126317839
 H         11.5834246789        0.5230754874       -2.5506008073
 H         10.6305282515        1.3437407044       -1.6437755341
 O          5.2307059854        0.2330145060        0.5636628531
 H          5.9693169892        0.3803634507        1.1750003842
 H          5.2862132060       -0.6735472059        0.2417557617
 O          5.5237721353       -1.2928981422       -1.7160684063
 H          6.4798338932       -1.4826889973       -1.7030347903
 H          5.2389937830       -1.5986822669       -2.6102571070
 O          5.1879858587        6.1824426363        0.8743566810
 H          4.7253449062        5.4141087428        0.4480568735
 H          4.9185772349        6.1548655981        1.7978221942
 O          2.0658602699        3.1557685983        2.5227625995
 H          2.4340626486        2.5439551168        1.8574534893
 H          2.6914239588        3.8967974678        2.5957603245
 O          2.9540448397       -4.0842744501       -2.4070399077
 H          3.9143100789       -4.1200377319       -2.3986849830
 H          2.6588212492       -4.9812502974       -2.6469569365
 O         -7.8943091626        0.9992393475        0.7936165124
 H         -8.7842692211        1.3031200908        0.5391893166
 H         -7.5977871310        0.4375507537        0.0544929304
 O          0.0595552041       -3.3586756290       -1.4538616475
 H          0.7932946630       -3.4500742455       -0.8110609995
 H         -0.0148905049       -4.1993056565       -1.9463500456
 O          3.6152974450        0.7795841631        5.8849693356
 H          2.8522858774        0.1952446073        5.6549042850
 H          4.0176318336        0.9834033225        5.0143660925
 O          2.1242314472       -6.1617278808        0.2023047510
 H          1.4577365311       -6.5662699866       -0.3911107454
 H          3.0068561648       -6.3685088099       -0.1720177773
 O         -2.7762091613        0.3024007294        1.6538708873
 H         -3.0763132093       -0.1719893895        2.4502406352
 H         -3.4673232338        0.1214774193        0.9862040918
 O         -5.8547701464        0.3449110185        2.8831248793
 H         -5.1087447173        0.0345016520        3.4070447676
 H         -6.3811626539       -0.4517316898        2.6703282679
 O         -8.5956688231        3.7828158184        1.8479463070
 H         -8.9158465531        4.6005427552        2.2259940955
 H         -9.0265859866        3.0576430547        2.3624108015
 O         -5.9488540210        2.8965701791        1.2740063781
 H         -6.7394736098        2.3428157102        1.1278871502
 H         -5.8346150101        2.9621196363        2.2369343363
 O         -5.8120011474       -0.3411530614        6.1884271163
 H         -5.2517364323       -1.1054680872        6.3971935744
 H         -5.1867082210        0.3804846643        6.0213201018
 O          0.1957853039       -7.1918243398       -1.3419211372
 H         -0.4891354087       -7.3412961272       -0.6748581295
 H         -0.1975690007       -6.5662416665       -1.9830472831
 O         -3.4787476474       -0.9525126329        3.8965368599
 H         -4.0315348319       -1.7583664616        3.9471127710
 H         -2.5439251586       -1.2497248736        3.9229932842
 O         -0.6609214067       -4.4883327157        1.0950612626
 H         -0.0051658639       -4.7646641506        1.7626700159
 H         -1.0202832949       -5.3274708928        0.7410943787
 O          4.3882079686       -2.5764649370        0.4752050914
 H          3.4925932459       -2.9476801615        0.3107779668
 H          4.8464257706       -3.2605433810        0.9979262363
 O          1.9083181242        2.7718246991       -4.9732267276
 H          1.5649699915        2.1573871996       -5.6488270690
 H          1.4240222117        3.6011571354       -5.0964808267
 O         -3.3897477389        4.4999844187       -1.6924623723
 H         -4.1673178251        4.7528457826       -1.1506397036
 H         -3.0869018664        5.2985149777       -2.1498090380
 O         -3.1070958316       -2.1922993384       -4.9526005234
 H         -2.6933908743       -1.4366400048       -4.5109710677
 H         -2.3926746368       -2.6226224566       -5.4675337203
 O         -9.6894925151        1.9220041386        3.4050353461
 H         -8.9507108220        1.9310828380        4.0394170292
 H         -9.7256115168        1.0032351302        3.0911054513
 O         -0.5745612358       -5.3376091104       -3.1019129575
 H         -1.4790839173       -5.1210205103       -3.3840865166
 H         -0.0030902916       -5.2891918597       -3.8972329807
 O         -5.4560962263       -1.7034213275       -6.3016904922
 H         -5.8781926022       -0.8711657462       -6.0530298959
 H         -4.5597210207       -1.7125024909       -5.9242055187
 O          7.3742644039        3.5169191311        3.0053408599
 H          8.2531166171        3.8034920579        2.7441140959
 H          7.3870270793        3.2849838202        3.9697929291
 O          0.7972038259        5.2799843710       -4.7999884944
 H          0.4263580611        5.0049447279       -3.9327250774
 H          1.0294542161        6.2032000660       -4.6899593275
 O          3.0023737010       -0.4074150908       -6.1523275165
 H          2.5860085932       -0.1970015901       -5.2772006409
 H          3.9278056580       -0.1594350958       -6.0713587186
 O          2.9331973679        1.5140844339        0.5594337686
 H          2.9048277335        1.8296876173       -0.3673903458
 H          3.7898315798        1.0489095403        0.6473482340
 O          5.3160550490       -4.8213983351        1.6521486513
 H          5.2971845323       -5.5642789410        1.0444625817
 H          4.6513073653       -4.9955671653        2.3487453981
 O         -1.4553787332        2.0628583674        3.3227634272
 H         -1.8022021131        1.3981254029        2.7146153760
 H         -2.0108255020        2.8578713322        3.2355116592
 O         -2.5965472000       -3.7009589842       -1.0561662156
 H         -2.8223104255       -3.9050216134       -1.9977881629
 H         -1.6302372125       -3.5697000090       -1.0654427445
 O          2.9006929151        2.1251114038       -2.0856882827
 H          2.8374835485        3.0632596882       -2.3504769156
 H          3.8270633894        1.8589996392       -2.2500177088
 O          7.4772152346       -1.6455537723        0.8557153388
 H          7.8088562772       -0.9145785705        0.3032601695
 H          8.0689825717       -1.7131335452        1.6315858022
 O          1.4300358466       -4.1715147006        5.3688854221
 H          1.0210397793       -3.4640311178        5.8885214346
 H          0.7997851044       -4.8994653514        5.3777781466
 O          1.1387223896       -5.8007846854        2.6515421423
 H          1.9410447484       -5.4729276816        3.0982598895
 H          1.4653075461       -6.2017096421        1.8274461203
 O         -5.1406904092       -3.0907841376        3.9315566449
 H         -4.9893944044       -3.4010597912        4.8271424402
 H         -5.1070434185       -3.8726815244        3.3406850644
 O         -4.2868852401        0.4993765098       -4.2313571376
 H         -5.2249445197        0.5107268276       -4.5138559199
 H         -4.0772840098        1.4213052295       -3.9859636887
 O         -0.9386561157       -1.3615416287        3.2698193329
 H         -0.3976033639       -0.5474656556        3.2784647439
 H         -1.1749820344       -1.4797661926        2.3291786607
 O          8.0939277218       -1.7514587430       -2.3868523921
 H          8.8195832698       -1.8507106187       -1.7450008335
 H          8.2506944541       -0.9330766348       -2.8748341596
 O         -6.7386963568       -1.8766454660        1.6599639048
 H         -5.8430975103       -2.2314136426        1.6167180556
 H         -6.9270610354       -1.5398940664        0.7530747633
 O         -4.1202204589       -5.7103242306       -0.1892547397
 H         -3.5626948303       -4.9432636410       -0.4474465568
 H         -4.6215496221       -5.9452738685       -0.9759483099
 O          4.4633582807        3.4254708521        4.8883431280
 H          4.3489389537        4.0353491575        4.1496372510
 H          4.1223533526        3.8730867126        5.6633147291
 O          5.3503876174       -1.1871631957        6.2253037468
 H          5.6531887859       -1.2935280637        7.1255340506
 H          4.7326946499       -0.4102601757        6.2159849673
 O          4.9547801458        2.9320150065        1.9933636541
 H          5.6551775821        3.3885599827        2.4760226770
 H          4.7285104352        2.1325893441        2.5184349594
 O         10.1647541073       -1.8843436040       -0.6381874393
 H         10.5224594205       -1.0964459450       -1.0800583769
 H         10.4175638609       -1.7881147325        0.2904203965
 O          4.5220785909        2.8562571888       -4.7030086273
 H          4.7750174533        3.2841314733       -5.5207952264
 H          3.5342410378        2.7722834674       -4.7371869360
 O          4.1591795020        4.0865351041       -0.2916916598
 H          3.1916548602        4.1536755783       -0.4533311578
 H          4.2715753131        3.5070164671        0.4812527874
 O          1.9007507122        0.1384666165       -3.8048169318
 H          2.2502565664       -0.4787579454       -3.1412188666
 H          2.1150328772        1.0291397778       -3.4922805186
 O          8.1235704928        3.6030981334       -3.0825756290
 H          8.3594728040        4.2160116755       -3.7775055412
 H          7.1861639378        3.8133369125       -2.8255041282
 O          8.2489106254        0.5684062862       -0.5617422228
 H          7.6122823624        1.2862725385       -0.3585390426
 H          8.4046425700        0.6062618613       -1.5162457469
 O         -0.7347403166       -5.9286279977        4.6047629771
 H         -1.5311580194       -6.3295090564        4.2243972765
 H         -0.0731886003       -5.9754620492        3.8900899792
 O          1.3798312970        6.2643691653        1.4090944360
 H          0.7590829250        5.8365368179        2.0385147642
 H          0.8454118635        6.8812896858        0.8866244704
 O          9.8179258040        1.2956164895        1.4075275162
 H          9.8980765289        2.2544110871        1.4087399537
 H          9.4343126348        1.0484381960        0.5330545476
 O         -5.1802337875        3.1918907279        3.9209097831
 H         -6.0605164757        3.0814200041        4.3080277336
 H         -4.6400336220        2.5147142989        4.3734005319
 O          4.4273919481        0.7036112774        3.3460911816
 H          3.7053047407        0.2182535573        2.9006556689
 H          5.1614152109        0.0693844068        3.3037637732
 O         -7.4497246065       -1.5699627982        4.3586670864
 H         -6.7940368340       -2.2279889892        4.0860497221
 H         -7.0340947914       -1.0963871758        5.0978074941
 O          5.7552704810       -1.6108311111        2.9609346401
 H          6.1260663579       -1.5888281353        2.0640325075
 H          6.2243270342       -2.3595120905        3.3929644487
 O         -5.5919468720       -5.2653989290       -2.7508708159
 H         -5.9417413542       -4.7038353920       -3.4655716896
 H         -6.0040287723       -4.8807902139       -1.9567563477
 O          8.8887712587       -1.9160641087        3.1463307997
 H          8.5856263073       -1.3171753296        3.8525699255
 H          9.7939638720       -1.6695128171        2.9125156342
 O         -9.0126445579       -2.8714336064       -1.1994795220
 H         -8.2038137212       -3.4135931359       -1.1306248340
 H         -9.4435828928       -2.9338331979       -0.3216965465
 O          0.9874285648        1.1929899983       -6.9913332330
 H          1.8012769742        0.6611728914       -6.9644971590
 H          0.2774940734        0.5192343294       -6.9361566986
 O          1.7262059069        5.2247534781        5.0911241335
 H          1.6785391850        4.2697309983        5.2884769177
 H          0.9268869410        5.3937407407        4.5741761703
 O        -10.7966412519       -0.7001978925       -1.7081004532
 H        -10.5421922586       -0.4185933970       -2.5957799042
 H        -10.2429547015       -1.4649280443       -1.5099340531
 O         -7.0945542359       -1.0011755050       -0.8445023667
 H         -7.8436858739       -1.5093695685       -1.1899346522
 H         -6.3350965475       -1.1407158900       -1.4486049839
 O        -10.1287725533       -2.7824521630        1.2476471002
 H         -9.7796310716       -1.9777555129        1.7163295137
 H        -11.0826478990       -2.7254278052        1.2861555626
 O          1.7316762647       -0.7488254135        4.8876939873
 H          2.3560586408       -1.4649888390        4.6690885343
 H          1.0046158903       -1.1711087569        5.3810219454
 O         -3.7604259114        1.3281042762        5.3076543512
 H         -3.5248367704        0.4971948901        4.8503071631
 H         -2.9575848291        1.6411739090        5.7347988179
 O         -1.0736479916        2.1441626461       -3.4431733819
 H         -1.1340874044        2.4341936426       -4.3828530214
 H         -1.9763223563        2.1549013385       -3.0722797274
 O         -9.1927785162       -0.6484290327        2.4917198468
 H         -8.6224388625       -1.0058414157        3.2002999408
 H         -8.5991120015       -0.1398013329        1.8953837157
 O          5.4475795706        1.3128758165       -2.1404824603
 H          5.3814415270        0.3735127860       -1.8484578378
 H          5.7718576533        1.8146310651       -1.3668803228
 O         -3.2532174147        0.9858278846       -6.6463853893
 H         -4.0121814022        1.1818948052       -7.1947538928
 H         -3.6020302097        0.7301888928       -5.7584316799
 O          2.3898098673       -6.6370748693       -3.1115735898
 H          1.7051545062       -7.0849307564       -2.5994365839
 H          2.0166855490       -6.4704771287       -3.9856810980
 O        -10.5398153285        1.2524817525        0.1373767063
 H        -11.0777218710        1.0044740403        0.8892711151
 H        -10.6503571313        0.5551813268       -0.5452843432
 O          5.6061225688        0.3700793683       -5.1228810603
 H          5.1848770803        1.2016735055       -4.8290721468
 H          6.5105731893        0.4129781109       -4.7852824091
 O         -9.4103397550        0.1150521894       -4.1569372688
 H         -9.8932896541        0.7564661583       -4.6776537070
 H         -9.0291393689        0.5977904731       -3.3682578181
 O         -6.5645719486        3.1438308375       -4.5957069452
 H         -6.9180305252        3.5699224713       -3.8044084819
 H         -5.5946817527        3.2180015583       -4.4964284067
 O         -1.8296157493       -0.3059620370        7.3668931694
 H         -1.8180218521        0.0152764795        8.2675697843
 H         -1.4770283834        0.4218051947        6.8008093534
 O         -5.8271713206        1.7468742900       -1.7424394869
 H         -4.9006120416        1.7568060707       -2.0493590354
 H         -6.1331535749        2.6752939784       -1.7658910913
 O         -3.3095715886        6.5240921939        1.2048342874
 H         -2.6370985488        5.8787178562        0.9150601831
 H         -3.3643069496        6.4155640449        2.1568283684
 O         -5.3464904991       -5.2324096774        2.2849970839
 H         -4.9685844703       -5.3693802692        1.3974483166
 H         -6.3047974800       -5.1707023971        2.1790279361
 O         -1.0186307727       -0.5514267973       -6.6117203122
 H         -1.0622643847       -0.4916978762       -5.6371802184
 H         -1.8354395741       -0.1322657279       -6.9195858793
 O          2.7717412115       -1.5241493815       -1.7975986325
 H          3.6793682803       -1.3982661652       -1.4911486170
 H          2.6998530760       -2.4693272087       -2.0317263328
 O         11.1331395978       -0.9879139812        1.8790112020
 H         10.7702244684       -0.0887103430        1.7464248762
 H         12.0786970502       -0.9003081344        1.9935131325
 O          9.4935132490        4.2110844396        1.1586988214
 H          8.7230442826        4.6194319730        0.7120242485
 H         10.1182411705        4.9174194130        1.3257845856
 O          6.6334130568        2.6122825766       -0.1038017534
 H          6.9414611635        3.5308651887       -0.1818951869
 H          6.0319313829        2.5856075786        0.6666483415
 O          3.5467726200       -5.0352792411        3.6692502488
 H          3.7541302833       -5.5692854854        4.4354545950
 H          3.5399238863       -4.0995410090        3.9905820867
 O          0.5533493255       -2.3373135220       -3.8553866109
 H          1.4356929180       -2.5419230380       -4.2269380795
 H          0.5011383075       -2.6871597869       -2.9461392499
 O          1.0543073799       -5.1855866836       -5.2373335301
 H          1.7489827038       -4.5020950929       -5.2381701203
 H          0.3747812558       -4.8381465355       -5.8321282114
 O         -1.2156452800       -0.4489824728       -3.8668066472
 H         -0.3809295124       -0.9664244274       -3.8453396691
 H         -0.9969430415        0.5008795130       -3.7344095298
 O          7.3917144576        5.2258720628       -0.2080062207
 H          7.2192292152        5.4158389126       -1.1339772996
 H          6.6612630695        5.6646068761        0.2931036741
 O         -0.5104941424        7.1639805596       -0.3138399059
 H         -1.2773384882        7.7057941237       -0.1218082658
 H         -0.8178117812        6.2327796661       -0.2315585532
 O         -0.1766211737       -2.1130278739        6.1808002984
 H         -0.8364394364       -2.5446129511        5.5992063874
 H         -0.6930073516       -1.5324433223        6.7604248913
 O         -8.8851150113       -2.6327903067       -3.9786527378
 H         -9.1407887177       -2.8240139047       -3.0674576975
 H         -9.1292768350       -1.7150715456       -4.1579349560
 O         -6.7793008356        0.5595975407       -5.1294040219
 H         -7.6421404164        0.2190318119       -4.8542806439
 H         -6.8227877721        1.5386268668       -5.0207182725
 O          6.9686844081       -3.8465188387        3.6819111525
 H          7.8611899178       -3.5292385391        3.4959809769
 H          6.6614472754       -4.3211114426        2.8945039976
 O         -7.3193720668        1.6920630033        4.7304236027
 H         -6.8739151263        1.1893472826        4.0131390193
 H         -7.2237161909        1.1536494938        5.5201360682
 O         -3.9165323246        3.1688773690       -4.0039855208
 H         -3.7953829439        3.5478375141       -3.1129259322
 H         -3.4724849235        3.8104919079       -4.6051486529
 O         -2.9354676786        4.2516996020        2.8041351256
 H         -3.7597460859        4.0996523554        3.2899822434
 H         -3.0833733531        3.8691165180        1.9081618953
 O         -2.9143778962       -6.3208703357        3.0155557117
 H         -2.9695357442       -5.3686104050        2.7891572202
 H         -3.8294758063       -6.6018267580        3.0830648748
 O         -9.2627131589        3.5054861192       -0.7232031651
 H        -10.0809189604        3.0114007484       -0.5909429445
 H         -8.9215578584        3.6447568695        0.1899756459
 O          6.9401440889       -3.7067575302       -3.8840409417
 H          7.5574598196       -3.0796567199       -3.4684228020
 H          6.5255023715       -4.1619956041       -3.1365029833
 O          3.4355412846        5.4779751675        3.0483739279
 H          2.8779846987        5.9357477792        2.3990392189
 H          2.9141676985        5.5319367762        3.8814762358
 O          1.4132254466        6.9487824667       -2.3501764429
 H          2.2740158003        7.2932795799       -2.0603670847
 H          0.7981908203        7.0781865245       -1.6153746537
 O         10.1078945120        2.9478005563       -1.3040634202
 H          9.9178533153        3.3636218906       -0.4529007154
 H          9.3925960975        3.2087179915       -1.9072268346
 O          7.7744161074        0.8835214819       -3.3261950261
 H          6.8782198911        1.0459821415       -2.9359307911
 H          8.1468822678        1.7702430286       -3.4249557308
 O         -1.1938491607        2.7208408407       -6.0256032387
 H         -1.9606172890        2.2068222507       -6.3348217625
 H         -0.4252491189        2.3853049722       -6.5043379646
 O         -0.0733304470        2.4610500535        0.7811586553
 H          0.1526191627        2.0039945247        1.6081781923
 H          0.0367634458        1.7324837654        0.1205482935
 O          0.4063391304        0.3129899429       -0.6629890846
 H          1.3539605083        0.1569637981       -0.7045434865
 H          0.0375256817       -0.4145772205       -0.1448441425
 O         -5.4454781891        6.2651677817        3.1364599753
 H         -5.6504450311        6.6535565394        2.2837788652
 H         -5.6465334218        5.3265661323        3.0914286562
