  96
       -162.87969496
 O         -2.2208753128        2.4277636698       -1.2837509039
 H         -1.5107111143        1.7647505527       -1.1333902807
 H         -1.7214509601        3.2315102853       -1.4712350178
 O          1.5464555239        2.0064324238       -2.8481317650
 H          1.8815290691        1.3510533037       -2.2087956474
 H          0.8734439877        2.5208294690       -2.3688101013
 O         -0.5835647311        2.0086414951        2.6756454192
 H         -0.1943878333        2.8911041300        2.8077661680
 H         -1.4389799614        2.1777733577        2.2064868568
 O          3.2068236338        2.6060694122        2.2154275983
 H          2.5489819394        1.9204488223        1.9494564263
 H          2.8217697548        3.0799845294        2.9551901401
 O          0.0947739755        3.9652855040       -1.4866751125
 H          0.7706357496        3.9853157296       -0.7779574389
 H          0.3188714329        4.6853115381       -2.0781994709
 O          0.6692169299        4.4393831796        2.5077058786
 H          1.1458495354        4.4647577878        1.6620790234
 H          0.0538171064        5.1732065549        2.4955569283
 O         -0.8981246992       -0.5381152126        3.7694790236
 H         -0.0731744272       -0.9681672414        3.5046067869
 H         -0.8100011155        0.4022088832        3.5437873875
 O          2.2123940249        4.1586700791        0.1774235601
 H          2.7137059334        3.6037942027        0.8022564251
 H          2.7668070815        4.1610587062       -0.6391451448
 O         -2.8184869939        2.5267477696        1.3869731704
 H         -3.6049059219        1.9894256737        1.6047737497
 H         -2.7637712212        2.5891996665        0.4152027220
 O         -5.0201703239       -3.1612713940       -0.3690457249
 H         -5.6413867222       -2.5091039044       -0.0324179557
 H         -4.5617070131       -2.7190403441       -1.0968023122
 O          0.5315947958       -2.3903121247       -3.5042450804
 H         -0.3109131597       -2.7154259966       -3.1276328068
 H          0.6657159075       -2.8631575160       -4.3267056937
 O          1.3804840665        0.8717820537        1.3966600089
 H          0.6241377796        1.3144924936        1.8660295817
 H          1.4605914595       -0.0173615960        1.8292125468
 O         -2.8372619730        0.7170596756       -3.4113260241
 H         -2.7499450750        1.4271710200       -2.7537185317
 H         -1.9399497652        0.5883290927       -3.7794710822
 O          2.6009055460       -2.2097401068       -1.6142869508
 H          1.9979924136       -2.2831842452       -2.3704228342
 H          2.1108320787       -2.5934409784       -0.8538523998
 O         -0.2380848039        0.3007456859       -4.1454316484
 H          0.4002704832        0.9451523205       -3.7909430149
 H          0.1182470854       -0.5726020363       -3.9324501258
 O          3.5646303443        3.7288020768       -2.0702138037
 H          4.2691260889        3.1308829394       -1.7769149408
 H          2.9211864755        3.1671090331       -2.5440380474
 O          3.9509474970       -3.7082191246        0.6702565957
 H          4.0631896970       -3.4028868663       -0.2347014429
 H          4.1192298558       -2.9341788865        1.2332935262
 O          5.2467548741        0.8769539934        1.5237003390
 H          5.3707838342        1.1229654726        0.5916042446
 H          4.6741458169        1.5695637661        1.8886046356
 O          2.8014999543        0.3602431500       -1.0223925934
 H          2.4348761562        0.4711331785       -0.1350782203
 H          2.7875651160       -0.6041244900       -1.2379635851
 O         -2.9522616082       -3.7666463808        1.3488513604
 H         -3.7274511750       -3.6818438387        0.7647575020
 H         -3.0198493900       -3.0435122480        1.9870473338
 O         -3.3028946643       -1.4647223146        3.0527066039
 H         -3.7035199636       -1.7791062875        3.8642785193
 H         -2.4101167890       -1.1296050040        3.3100655031
 O         -0.8721207576       -4.5359880832       -0.2426746300
 H         -1.2002637958       -4.1511888661       -1.0702094506
 H         -1.5878438583       -4.4063660487        0.4088797184
 O         -1.8902808390       -3.2845861850       -2.5762460317
 H         -2.3801711154       -3.9465113883       -3.0659573325
 H         -2.5397006566       -2.5571253618       -2.3766422504
 O         -4.7995151326        0.7206641984        1.8825281807
 H         -4.4031204105       -0.0144282044        2.3713590419
 H         -5.1855403595        0.3429804296        1.0746204529
 O          1.2931196919       -3.2292545730        0.5142779776
 H          0.5263394347       -3.8056483647        0.2760039044
 H          2.0574809151       -3.7964478151        0.7160357776
 O          1.5340561418       -1.4826621754        2.5285407021
 H          2.5016197945       -1.5337987300        2.6276182493
 H          1.3212545785       -2.1489124107        1.8385789519
 O         -5.7392329991       -0.2983497355       -0.5610111898
 H         -5.0471084769       -0.6023814000       -1.1807164544
 H         -6.2139768559        0.4034809734       -1.0071369214
 O         -3.6074933226       -1.3531405211       -1.9964269755
 H         -3.3904721908       -0.6231407242       -2.6331771304
 H         -3.1667957028       -1.0653542229       -1.1283336035
 O          5.1450398645        1.5584251600       -1.1734346417
 H          4.2754547604        1.0885046854       -1.1667298261
 H          5.6896727779        1.1190418042       -1.8269055213
 O          4.2683022700       -1.4500116099        2.3019889290
 H          4.8420975383       -1.6781187646        3.0342446518
 H          4.6213834528       -0.5938629130        1.9457573437
 O         -2.4420590210       -0.6423133765        0.4475798789
 H         -2.7168180075        0.1450566753        0.9354894326
 H         -2.4455652954       -1.3698047737        1.0783278341
 O         -0.3276027240        0.6066052861       -0.7976746701
 H         -0.9212302054       -0.0695306307       -0.4446376147
 H          0.3257368469        0.7822512890       -0.1023139124
