  90
       -147.39323751
 C          1.4980801281        0.0807994968        0.0240776860
 C         -0.3296495940        1.1228235025        1.0817156640
 C         -1.2951677667        0.3785366931        0.1689380330
 C          0.5503945325       -0.6866682945       -0.8860606552
 H          1.7188588111       -0.5203372331        0.9106349003
 H         -0.1725556834        0.5520115692        2.0016166087
 H         -1.4794802575        0.9818432010       -0.7286158393
 H          0.3891042505       -0.1180821417       -1.8108586745
 H          2.4222358110        0.3303295883       -0.4954794962
 H         -0.7013599596        2.1151756644        1.3251389000
 H         -2.2332913794        0.2178054400        0.6924160604
 H          0.9967057927       -1.6467785695       -1.1260778192
 O          0.9271041612        1.3196502782        0.4396231547
 N         -0.6980358932       -0.9080663848       -0.1669350425
 H         -1.3373229188       -1.4572157263       -0.7392238385
 O          1.3241524972        3.2907604890       -1.4265313788
 H          1.6746306015        2.8864804760       -2.2365779432
 H          1.1814930344        2.5441384039       -0.8177925486
 O          1.6444500477        0.5721289645        4.2208507397
 H          2.0037473418        1.2405674223        3.5829982184
 H          2.0019162918        0.8006037709        5.0789720445
 O         -0.8081491958        1.3730239852       -3.5406441781
 H         -1.1809111448        2.0124911242       -2.9203171426
 H          0.1478998098        1.5570581741       -3.5901986886
 O          1.3258151813        4.5336626468        1.1157141844
 H          1.8865154109        3.9651131749        1.6576137854
 H          1.5167228479        4.3154209946        0.1916006938
 O         -3.6072884823        2.6066925330        1.5733429466
 H         -3.4049305142        1.8064620795        2.0836305548
 H         -2.8122594927        3.1547763824        1.5755977540
 O         -0.2159063581       -2.3396039541        2.0506892540
 H         -0.6729658982       -3.1709612342        1.9014120561
 H         -0.4045050787       -1.7914668736        1.2317262467
 O         -2.5344148072       -2.4110112454       -2.0469765659
 H         -3.2439472275       -1.7970457094       -1.7965581314
 H         -2.0976550677       -2.0363511276       -2.8282091308
 O          2.3154639480       -1.7247084180        2.7958961997
 H          1.4224435854       -2.0676793960        2.6002352820
 H          2.1630699749       -1.0072584555        3.4331487558
 O          4.3261594402       -1.1600132779       -0.8004779528
 H          5.1936417425       -1.4913891932       -1.0380093137
 H          3.8453061184       -1.9259595289       -0.3906164572
 O          1.1484527735       -2.7355088818       -3.3466153332
 H          0.9476128854       -3.2177578702       -2.5321749868
 H          0.3317369902       -2.2786522859       -3.6045578033
 O         -0.8923145745       -0.6683022940        4.0874872305
 H         -0.0709156393       -0.1729677957        4.2214549434
 H         -0.6820079904       -1.3738706951        3.4435982828
 O          3.0526065819       -3.1100656936        0.4268387682
 H          2.1995291548       -3.3866754743        0.0505202854
 H          2.8736742937       -2.7760093171        1.3160688910
 O          2.9591654462       -0.6898113057       -3.1943000705
 H          3.4440437353       -0.8353473990       -2.3656100600
 H          2.3622366410       -1.4569803181       -3.3053784641
 O         -4.3686762273       -0.6296534212       -1.0039499748
 H         -4.1721416356        0.3403870109       -1.0449364681
 H         -5.3060462190       -0.7105567144       -1.1824319020
 O         -1.1103466457       -1.2182817068       -4.0670259350
 H         -1.3190286555       -1.2512053678       -5.0009875031
 H         -1.0327376032       -0.2643111362       -3.8380910646
 O          4.3244964867        0.0884214648        1.7322006344
 H          4.4260661154       -0.1926444263        0.8091546741
 H          3.8393100587       -0.6274745216        2.1646734722
 O         -3.5116917450       -2.0037988338        1.3180942678
 H         -3.3610636166       -1.2807722284        1.9466915328
 H         -3.8617219467       -1.5842637162        0.5165167045
 O         -1.3455727305        4.3165344860        1.1435560714
 H         -1.6959806485        5.2036163945        1.2380441412
 H         -0.3643335335        4.4080309631        1.1991988023
 O         -1.4146018781        3.3138970073       -1.4886540604
 H         -1.5881305139        3.6594558903       -0.5983296552
 H         -0.4590476283        3.4721297082       -1.6092170513
 O          1.9265159164        1.6875416259       -3.5789780702
 H          2.3048486826        0.7837991519       -3.4003957999
 H          2.3206436906        1.9715801094       -4.4041102214
 O         -1.8531136435       -3.8378698144        0.1648720480
 H         -2.1565810419       -3.6054077116       -0.7279079417
 H         -2.4289207207       -3.2853008489        0.7295847421
 O         -3.9784872698        1.9854279664       -1.0372587390
 H         -3.9768742317        2.2462451583       -0.0923964033
 H         -3.2155380217        2.4281479045       -1.4266777609
 O          2.6857591798        2.1603880505        2.3522748662
 H          3.4590987313        1.5874016287        2.1694599760
 H          2.0510163454        1.9300312289        1.6501392358
 O         -3.1202943153        0.2335310275        2.9974278955
 H         -3.7900779293        0.1902180083        3.6816528793
 H         -2.2713955543       -0.0285157566        3.4331909344
 O          0.6746775126       -3.9673658455       -0.7605967864
 H         -0.2167103779       -3.8522999452       -0.3586931898
 H          0.7773578384       -4.9107665175       -0.8960187003
