  252
       -422.41269434
 H         -1.7763802593       -0.1440941519       -0.1502061882
 C         -0.7104475931       -0.2190610289        0.0707038921
 H         -0.2225155421        0.7078816826       -0.2141431194
 C         -0.1136264532       -1.3716303014       -0.7209687577
 H         -0.1703679249       -1.1357945130       -1.7792234846
 H         -0.6686826623       -2.2821919796       -0.5189589274
 O         -0.5063165622       -0.3597943366        1.4591061284
 H         -0.8850736321       -1.2305312819        1.7205490605
 N          1.2903311997       -1.5803231302       -0.3327243561
 H          1.7272114068       -0.6870156066       -0.0273398911
 H          1.8531665056       -1.9749021453       -1.1081451725
 H          1.3511989487       -2.2299982105        0.4862668821
 O          1.0522131032        2.4678689018       -0.6007536057
 H          1.9800550125        2.5835541383       -0.8779630371
 H          0.5690420978        2.1613609812       -1.3900809914
 O          2.7852129944       -2.7418697091       -2.3303304424
 H          2.2417185794       -3.0758061162       -3.0650158390
 H          3.0117589460       -3.5262260461       -1.7938819760
 O          7.8007964817       -0.5109944224       -0.1336763003
 H          7.3149717747        0.3376263874       -0.2449838090
 H          8.6353458870       -0.4159385646       -0.5938381464
 O         -7.6112527607       -0.9904173896       -0.6305627936
 H         -8.5541564996       -1.1460502658       -0.5908072896
 H         -7.4192068285       -0.2450540959       -0.0043692767
 O          4.8483357351        1.0113261169        1.7008264216
 H          5.4085785356        1.2676218119        0.9540503184
 H          3.9457110794        0.8581411088        1.3413040897
 O         -4.0125440527       -0.0870941386       -0.5136293232
 H         -4.2862198677       -0.7083937266        0.1759211632
 H         -4.1286331561        0.8045646591       -0.1230971552
 O         -4.7202965075        2.2179812544        0.5782278880
 H         -4.8730586344        2.9080705902       -0.1042635726
 H         -4.4438913056        2.7128284326        1.3773191995
 O         -5.3346159707        4.1742327250       -1.1055507639
 H         -4.9490972578        4.4581221619       -1.9630301545
 H         -6.1937955593        3.7552740239       -1.3209019879
 O         -2.2562509654       -1.4835754802        5.6690982071
 H         -1.6896803931       -0.8582438432        5.1577381432
 H         -2.6550649236       -0.9766686302        6.3757813514
 O          1.8470862953        2.8756559850       -3.4835975764
 H          0.9485153027        2.5043236356       -3.3536482186
 H          2.0949533049        2.5820656231       -4.3793461445
 O         -4.1406664697        4.7521283347       -3.4304828553
 H         -3.2202143390        4.9151954287       -3.1915387807
 H         -4.1876589968        3.8774487332       -3.8447593136
 O          5.7882882404       -0.9886042365        3.2195023902
 H          6.7066925457       -0.6872490496        3.3089721600
 H          5.4020440634       -0.3492606183        2.5832861218
 O         -0.7841272485        0.2075345698        4.2406752790
 H         -1.3801619775        0.2487591683        3.4678964719
 H          0.0675707267       -0.1502967775        3.9147826517
 O          5.4708615951        4.5007130261        3.0548168604
 H          4.6921701920        4.3141698627        2.4730461544
 H          5.4219546965        5.4264605226        3.2924939589
 O         -3.1561517582       -5.5156970095       -2.7841850534
 H         -3.8473675635       -4.8287712763       -2.8094828961
 H         -3.1815929674       -5.9166795147       -1.9019681995
 O         -2.6609627298       -1.4786169423       -2.4591483122
 H         -3.0245054461       -0.9394532007       -1.7415558722
 H         -2.5616979753       -0.8929496806       -3.2336223187
 O         -2.8647377907       -3.4927426679       -0.3357368110
 H         -3.7786761241       -3.1831326389       -0.3178861238
 H         -2.9140643749       -4.4603827532       -0.2644227434
 O         -0.0947909271       -2.9744207130        4.4455024468
 H          0.8513146886       -3.0114564670        4.6969869260
 H         -0.5928588873       -2.6471674024        5.1980328894
 O         -1.4428861199       -5.1271449751        3.6272165576
 H         -2.3400936110       -4.7983238425        3.7423325969
 H         -0.8725592814       -4.3799239999        3.9159227059
 O          4.4159743329        2.1529460504        4.0843498788
 H          4.5874803690        1.7467688000        3.2059983999
 H          4.9030009233        2.9858504158        4.0660113347
 O         -1.4852303101       -2.7863664956        1.8447370447
 H         -1.9698329983       -3.0552393369        1.0379322697
 H         -2.0865834437       -2.9374887717        2.5985006375
 O         -2.1156125681        2.2256103792        5.5335828440
 H         -1.5563584323        1.4915783250        5.2293543075
 H         -1.8798865935        2.9696373627        4.9506832425
 O         -4.2841672543       -2.2023027861       -5.3485303840
 H         -4.5509129360       -2.5687052450       -4.4806228557
 H         -4.9240640587       -2.5142683431       -5.9878478664
 O          1.5670835447       -5.6305010976        2.6403644069
 H          0.8098922685       -5.9933009450        2.1407938024
 H          1.3307688979       -5.6756998427        3.5686266758
 O          1.8496217669        2.7343037282        4.2099737459
 H          2.8148363568        2.5350383803        4.1239186865
 H          1.5393109161        2.2775408350        4.9928550112
 O          4.0137554296       -5.4084500187        1.4169053161
 H          4.2257334826       -4.5931771140        1.9123898098
 H          3.2272352236       -5.7471891676        1.8715418987
 O          6.6442255344        1.8772544532       -0.2720402263
 H          7.0400363822        2.4835272371        0.3736386533
 H          6.4076800184        2.3798661134       -1.0705715344
 O          7.5593553255        3.1784663338        1.9424095086
 H          8.3537917799        3.5862416252        2.2883107411
 H          6.8020702562        3.6300416416        2.3685725705
 O          1.1707266089       -3.7716202733       -4.1924165831
 H          0.9432916659       -3.8829024490       -5.1159616077
 H          0.3461085226       -3.8600698544       -3.6827746374
 O         -4.6399862118       -3.1902433440       -2.8356912636
 H         -3.8695459288       -2.6029540448       -2.6301561938
 H         -5.2110914723       -3.1269960377       -2.0622278982
 O          0.8588636713        5.2037454187        3.3419541055
 H          1.3565311700        4.4540701216        3.7074540193
 H          0.9954407137        5.1733654323        2.3880096979
 O          1.2241281009       -2.9531042007        1.9940035308
 H          1.5372311884       -3.8469785683        2.2064004560
 H          0.2516701247       -2.9905990182        2.0718095216
 O         -4.6253135230       -1.2483067180        2.0380065326
 H         -5.3647844253       -0.8554174754        2.5297670173
 H         -3.8786842532       -0.6149953293        2.1681183321
 O         -6.4090571945        0.1522543407        3.5795235692
 H         -5.7412509021        0.7699900977        3.9460196915
 H         -6.9723801805       -0.1060647640        4.3087836913
 O          3.7522268126       -0.4238507468        4.9060645969
 H          4.5228997634       -0.7675009640        4.4091304184
 H          3.9371432202        0.5200742031        4.9860360984
 O          5.8401269272        3.0656839567       -2.6257630211
 H          5.4834826433        2.3117941644       -3.1466471651
 H          6.3967038728        3.5648075894       -3.2230046680
 O         -3.0112312870       -6.2209310019       -0.0919909801
 H         -3.6100800956       -6.7884228614        0.3924528685
 H         -2.1310775589       -6.2820700688        0.3699415402
 O          4.8493848254        1.0321375035       -4.0358245511
 H          4.1965143529        1.1401503591       -4.7307641342
 H          4.9189789093        0.0808130115       -3.8335474446
 O          2.1302905592        1.3756855140       -5.6863481563
 H          1.2052503714        1.3381030098       -5.9706935734
 H          2.3412474754        0.4520395856       -5.4659289799
 O         -7.3527727031        2.4701526410       -1.4962934265
 H         -7.6138981918        2.1580923635       -0.6238425981
 H         -6.8700555118        1.7326275757       -1.9125352902
 O          8.0442278123        0.3856725900        2.5819337069
 H          7.8036727620        1.3098047055        2.4298878299
 H          8.0470998662       -0.0389238607        1.7130039844
 O          3.4122797208        3.9089519995        1.5278896529
 H          2.6155305730        4.4107585203        1.3178569707
 H          3.6393622339        3.4396966855        0.7029172714
 O          5.0248078069       -1.5659999053       -3.1859104734
 H          4.1731869535       -1.9480699552       -2.8764550997
 H          5.6845766509       -1.9976766340       -2.6294838380
 O          1.6241784468       -0.5677055423        3.2495805616
 H          2.3772462805       -0.5737099980        3.8766168729
 H          1.5029841047       -1.4880234730        2.9350034525
 O          0.3793592920       -4.3325490849       -0.4965980953
 H         -0.0951298566       -4.3079335123       -1.3412285046
 H          1.2851716522       -4.6355249092       -0.6691879375
 O          2.3049023737        0.2562613395       -2.4954395651
 H          2.4273361838       -0.3104849653       -3.2657274567
 H          2.2731014524        1.1720676941       -2.8137014889
 O          1.1096011711        5.1913217475       -2.3102843641
 H          1.3411129756        5.8998646535       -2.9105277554
 H          1.4662553947        4.3646332052       -2.7064452309
 O         -2.6967207535        0.0356419668       -4.7455082499
 H         -3.2664017316        0.8000248370       -4.4913783028
 H         -3.2889370680       -0.6156978205       -5.1464895125
 O         -1.6490778104        5.3433589716        0.8002374247
 H         -1.8403023117        5.6782311402        1.6790991071
 H         -0.6721857542        5.2333047037        0.7535271297
 O         -0.7504726968       -6.0156571302        1.2228953609
 H         -0.3863647361       -5.2950972214        0.6593941687
 H         -1.0832874468       -5.6159560147        2.0610077021
 O         -1.6452304198        4.9178883601       -1.9990277519
 H         -1.7968318633        5.2290835512       -1.0969208364
 H         -0.6865390144        4.9875984763       -2.1521367753
 O          3.9040592259       -2.0721038661        0.2914903694
 H          4.6558509011       -2.5099421582       -0.1297704595
 H          4.0224312854       -1.1314428666        0.0802402490
 O         -7.0541659643        1.0115425479        1.0031565272
 H         -7.0265854398        0.7478006732        1.9334238761
 H         -6.1906677113        1.4604982612        0.8400116026
 O         -0.5648247559        0.7440442701       -6.3046590432
 H         -1.2393604578        0.4910561943       -5.6368816512
 H         -1.0362730673        1.1869772415       -7.0101775083
 O         -5.9198477081        0.2702003971       -2.3970990340
 H         -6.6244093083       -0.3219239982       -2.1022334592
 H         -5.1893467889        0.1235908223       -1.7591749346
 O          3.0092592873       -5.0344402819       -0.9510994307
 H          3.1917694071       -5.8650260727       -1.3894801540
 H          3.4255698962       -5.1052632070       -0.0435117268
 O         -1.1638997349       -3.8468235548       -2.7807527788
 H         -1.8534467896       -4.5640430468       -2.7726852730
 H         -1.5985688185       -3.0607111396       -2.4067226225
 O          6.3379648683       -2.6617470830       -0.9462733326
 H          6.7373226413       -3.4669025081       -0.6159370131
 H          6.8509087413       -1.9172692614       -0.5735279685
 O         -2.0004038339        2.6304231910        0.7619271619
 H         -2.0894445759        3.5986712064        0.8201688335
 H         -1.0731568668        2.4432260350        0.9681898560
 O          4.1252604997       -3.0592596617        2.7374333289
 H          4.8847388740       -2.5239150935        3.0145174512
 H          3.8313472736       -2.6455268174        1.8969650121
 O         -4.0477870521        3.7970887523        2.6464437428
 H         -3.1169075340        3.9011656281        2.9146026970
 H         -4.3053056948        4.6097820566        2.1643534424
 O         -1.5701368266       -2.8039995996       -5.2684192031
 H         -2.5138073087       -2.6500096320       -5.4245444446
 H         -1.5160552256       -3.3260593642       -4.4451806680
 O          0.9593725618        4.8552646852        0.4566809089
 H          1.1521841395        5.2765311008       -0.3931283290
 H          0.8885803569        3.8955597563        0.2123005676
 O          0.2495115969        2.1536056496        2.1522435776
 H          0.9187304564        2.2963258805        2.8492760190
 H          0.0603646105        1.1995402833        2.1283353213
 O          4.4335809037        0.2369487579       -1.0189605604
 H          3.5916052799        0.1506986127       -1.5366275521
 H          5.1266674795       -0.0628778362       -1.6128507444
 O         -4.4582377237        1.8053097091        4.3912913581
 H         -4.5586203915        2.6492936901        3.9185549931
 H         -3.6948189144        1.9399472203        5.0055506320
 O         -0.3285501191        1.5760803954       -2.8029500308
 H         -0.2931260869        0.6759940405       -3.1755215105
 H         -1.2517449980        1.7533854315       -2.5357709960
 O         -0.1208591654       -0.9247824212       -3.8103579184
 H          0.7642504976       -1.2336811085       -4.0236382183
 H         -0.7350942315       -1.4430804510       -4.3528943459
 O          2.5448859553       -1.2215362343       -4.9365644620
 H          1.9151594796       -1.5621368584       -5.6207418032
 H          3.3303059913       -1.7710130786       -4.9612040786
 O          0.5933274249       -1.7681077037       -6.6288328900
 H          0.2611093422       -0.8558092561       -6.6909732307
 H         -0.1651226489       -2.2747944877       -6.2964855776
 O         -2.6192114434        2.4152400193       -1.7930257742
 H         -2.3479019381        3.3421702607       -1.9456942685
 H         -2.5357064004        2.3005586103       -0.8240166029
 O         -3.3965033961       -3.0649872475        3.7263033886
 H         -3.9654230021       -2.4727605644        3.2070302624
 H         -3.0614236627       -2.5486519678        4.4805591687
 O          3.7204203280        2.8013265095       -0.8972303830
 H          4.2648204429        3.2096082022       -1.5789159279
 H          4.0348550592        1.8723428362       -0.8371341297
 O         -4.2689845547        1.9477710676       -3.8166101708
 H         -5.0532828169        1.4524340639       -3.5407840265
 H         -3.7507550721        2.0778390529       -2.9945375725
 O          2.5343083335       -3.0122254196        4.9581824664
 H          2.9039475888       -2.2097270559        5.3404405554
 H          3.0511096750       -3.1668756635        4.1436604202
 O         -5.5498586559       -2.6986346128       -0.1401366438
 H         -6.3427852476       -2.1820787086       -0.3679080281
 H         -5.3291991230       -2.4279615206        0.7624121368
 O         -4.5967228181        5.7777751606        0.9350740692
 H         -5.0063017733        5.2740178671        0.2030516329
 H         -3.8654427600        6.2572793868        0.5426732979
 O          2.3592445672        0.5591992178        0.9747301494
 H          1.8103047564        1.3329981861        0.7788418876
 H          2.0451799731        0.1799953321        1.8320778457
 O         -1.4356821069        3.8569272075        3.4365126453
 H         -0.7384657203        4.5260937402        3.5860106347
 H         -0.9584858950        3.1374197293        2.9708919400
 O         -2.8760735021        0.6711268452        2.5307442279
 H         -2.6594776828        1.3437879033        1.8629735840
 H         -3.4483460727        1.1053428316        3.1978594137
