  252
       -422.41711372
 H         -2.0381304136       -1.2576903224       -0.3373863951
 C         -1.2887105120       -0.7230377494        0.2450482990
 H         -1.3206384720        0.3282486643       -0.0418538611
 C          0.0881349537       -1.2993123225       -0.0710770973
 H          0.1875449010       -1.3815258649       -1.1500464449
 H          0.1809560066       -2.2885694857        0.3721099554
 O         -1.6537012081       -0.8805660362        1.5968091572
 H         -1.2061087104       -0.1888272138        2.1280955914
 N          1.1772955170       -0.4471522337        0.4372276987
 H          1.2492966799       -0.4942773160        1.4883550771
 H          1.0743018517        0.5342856785        0.1031750059
 H          2.0690376666       -0.7922233501        0.0373160112
 O          3.0866445895        1.8725847963       -2.9804784146
 H          2.6979965546        2.7175661722       -3.2392402109
 H          4.0433690742        2.0320073416       -2.8143475885
 O          3.4401878736       -0.3051561948        4.7399251847
 H          2.9314194931        0.1760300107        5.4375384242
 H          4.1048143964        0.3227445159        4.4270167408
 O         -1.9296671931       -3.2282479137       -2.7389521480
 H         -1.6334296048       -3.7859546940       -1.9942436987
 H         -1.1412560064       -2.8132717119       -3.1301081916
 O         -2.6776652789        4.7415670826       -1.3848673739
 H         -3.5256108374        4.6009510499       -0.9458465822
 H         -2.7080946293        4.1895913786       -2.1832247567
 O          7.4920708969       -2.0344496286        1.8732498140
 H          7.1399586960       -2.8713392195        2.2191091216
 H          7.6389570973       -2.1937794074        0.9243903026
 O          2.8559277744       -0.5430082939       -1.7046340992
 H          3.7546476193       -0.5483525073       -1.3340075944
 H          2.7939457035        0.2591881902       -2.2388346042
 O         -3.9891424382        1.0281271090        1.6314489755
 H         -3.6613943644        1.1980803644        0.7234562140
 H         -3.4917001489        1.6097395699        2.2374828167
 O          6.6422623388        1.3827715981        0.4322146198
 H          7.1361982919        1.1666093691        1.2379789039
 H          7.2776562230        1.3899690734       -0.2952431943
 O          5.6727755866        2.2803819594       -2.5354707421
 H          5.8142088200        2.9654486194       -1.8621760930
 H          6.3742882528        1.6283192651       -2.4044678251
 O         -5.0577255441       -3.2690542571        0.6423137037
 H         -4.6038723225       -2.7967317082        1.3697935550
 H         -4.5860302849       -4.1003318351        0.4652555736
 O          0.3184292563        3.8532266697        3.8636874997
 H          1.0732069118        4.4282739325        4.0015430740
 H         -0.2910365852        4.3145991829        3.2629862862
 O         -1.4912399074       -4.6588993325       -0.4816649032
 H         -1.7135066292       -4.1923995079        0.3607134932
 H         -2.2920490324       -5.1792982805       -0.6572693693
 O         -0.4991201814        1.8261336232        5.4443651140
 H         -1.3270278034        2.1268641811        5.8225432286
 H         -0.1868624100        2.5389871399        4.8473155584
 O         -3.4078437492       -1.0609178272        5.0035808059
 H         -3.7104225130       -0.1120007748        5.1046679609
 H         -3.7577101395       -1.5357706587        5.7566613741
 O          1.3013437542       -1.0409299966       -6.0606157203
 H          2.1118659890       -0.6062509979       -5.6864873148
 H          1.5678537656       -1.4485655996       -6.8842569063
 O         -0.7178442156        0.8452337070       -6.3517525857
 H         -0.0113774143        0.1806187036       -6.2900065226
 H         -0.4617392182        1.5701122857       -5.7583824704
 O         -1.0446060475        2.8242327474        0.4123707333
 H         -0.2874650988        2.7165693665       -0.1886719071
 H         -1.8546932246        2.5906696227       -0.0953882085
 O         -2.8163275160        3.2884998284       -3.7610836255
 H         -3.1036164332        3.9682544380       -4.3718931182
 H         -3.4899817303        2.5654163142       -3.8424102062
 O          0.9941004721        1.8628530236       -0.9938968465
 H          0.5613199034        1.3344777936       -1.6975782368
 H          1.8663603180        2.0920928054       -1.3353371414
 O          2.1713738090       -3.0297611180       -2.2883352187
 H          1.8291148438       -3.4769813020       -1.4881497646
 H          2.4672460092       -2.1358197701       -2.0046248862
 O          3.8471990330        1.5761641593        0.2867831604
 H          4.7924799110        1.5990050432        0.4769509353
 H          3.6620837780        2.3845316414       -0.2158006056
 O          1.4667904162       -0.9162367101        3.0166473178
 H          2.1955249851       -0.5916933003        3.5775259985
 H          0.6526500694       -0.7840723886        3.5242085405
 O         -0.0377177675        5.0924895108       -0.8442027098
 H         -0.9977224465        5.0255862207       -0.9939428246
 H          0.3865413079        4.8467552249       -1.6745462892
 O         -2.8056483405        0.1966845304       -2.8075137971
 H         -2.9454414165        0.0644819597       -3.7723145744
 H         -3.2401220877       -0.5448784802       -2.3607953753
 O         -2.6551622217        2.6371025815        3.3683486951
 H         -1.8036397205        2.1567873625        3.2813290969
 H         -2.4855705242        3.5327850781        3.0460279877
 O          8.0269521285        0.8141959731       -1.9563660105
 H          8.0159762537       -0.0869484784       -2.3341352864
 H          8.7430509382        1.2825123652       -2.3860437667
 O          5.4571408726       -0.6343017966       -1.0338426658
 H          5.7226212507        0.1388642837       -0.5122084006
 H          6.1048326519       -1.3318815736       -0.8271436956
 O         -7.5789228696       -0.1162895219        0.8901163482
 H         -7.3927294269       -0.5293394879        1.7614029720
 H         -8.2375408977       -0.6734512080        0.4545477660
 O         -4.1898547858        1.4092442975        5.2240989719
 H         -3.6518869678        1.9349621329        4.6051532846
 H         -5.0999395449        1.4667085209        4.8833138431
 O          5.0226727769       -0.9134744521        1.9690573074
 H          5.9422834017       -1.2173645720        1.8496136760
 H          4.6508677207       -1.4882638807        2.6712771542
 O         -6.8269988150       -1.1007083912        3.2600964479
 H         -6.8283241940       -0.2521887765        3.7298669482
 H         -5.8869989399       -1.2648842859        3.0090307805
 O          2.0496802800        1.9395459210        2.2266264043
 H          2.7631240946        1.7236235626        1.5928859542
 H          2.4726089604        2.2287319556        3.0600706447
 O          5.7623214125        4.2983020568       -0.6470984854
 H          4.7817000560        4.3064044633       -0.7305988705
 H          6.0631687644        5.1941145178       -0.7968812751
 O         -6.7073032734       -2.4104448187       -1.4812005907
 H         -6.2146341565       -2.6381619171       -0.6788252031
 H         -7.6333511564       -2.3294822982       -1.2025274392
 O          1.1887898263       -4.4854092380       -0.2180751255
 H          1.7686414875       -5.2344572709       -0.4561655066
 H          0.2632019369       -4.7424970455       -0.3756731365
 O         -0.7587174752       -0.7552234138        4.5860208736
 H         -0.6042563788        0.1605726133        4.8839357156
 H         -1.7200258662       -0.8854900293        4.6776140454
 O         -0.2510517632        2.6107309835       -4.2510612963
 H         -1.1726911166        2.8915479068       -4.0780809848
 H         -0.1523798535        1.7672507054       -3.7460435988
 O         -5.1971867055        3.6276991250       -0.6460194678
 H         -5.7127931148        3.2779375160        0.1019335533
 H         -5.7615262219        3.5540668316       -1.4362510355
 O          5.3417182554        3.9122112631        2.1022487074
 H          5.3856696648        2.9963540898        2.4128404219
 H          5.6507348438        3.9166792027        1.1856925230
 O         -1.5316521126        4.8364484228        2.0686809967
 H         -1.3537904793        4.1860153453        1.3524280992
 H         -1.6360269406        5.6842003856        1.6373624712
 O         -5.3357250228       -4.3737823268       -2.8361565286
 H         -5.9367768006       -3.7052884979       -2.4618444437
 H         -4.8958290118       -3.9508630714       -3.5830052874
 O          5.0700908270       -4.1240228745       -0.1765151718
 H          4.3905565923       -3.4027661903       -0.0487868648
 H          5.3833116562       -4.3189747494        0.7217096883
 O         -5.5128765302        0.3308379542       -0.7688506591
 H         -6.1429692360        0.0348371246       -0.0874402338
 H         -4.9798190023       -0.4327759558       -1.0180685009
 O         -4.8590916153        1.6928525362       -4.2147661502
 H         -5.5280262790        2.2987573563       -3.8616113445
 H         -5.1013689438        0.8071805227       -3.8822554217
 O          5.3663252798        1.3528476985        3.3139810855
 H          5.1266181912        0.6395852757        2.6806589598
 H          6.3146403569        1.2458776592        3.4508589650
 O         -5.6504013415       -0.8680290035       -3.5527257653
 H         -5.0786138926       -1.5083208328       -4.0086987426
 H         -5.9939631244       -1.3431123706       -2.7790064564
 O         -7.5404923189        0.8943264608       -2.4112048985
 H         -7.3828992573        0.3113634162       -3.1601093085
 H         -6.8086297084        0.6882184784       -1.7803795305
 O          5.9103512076       -4.2112729441        2.4849026140
 H          6.0743482761       -5.0241538275        2.9631685385
 H          5.2239588582       -3.7257845073        2.9866401982
 O          5.3537239096       -1.3650436265       -3.6356229111
 H          5.2565622650       -0.9440972059       -2.7587356855
 H          5.0591393613       -2.2981930957       -3.5092061878
 O          2.0883804778        1.3029811864        6.3250547343
 H          2.4757598136        2.0567339568        5.8506662215
 H          1.1341286631        1.3753203323        6.1764499711
 O         -3.1750920410        1.9024905667       -0.7629196520
 H         -3.1585149556        1.3652028713       -1.5722389201
 H         -3.9594857703        2.4917515944       -0.8162577167
 O         -3.8448237073       -2.6632978110       -4.6216042201
 H         -3.1201324560       -2.9463911529       -4.0410499157
 H         -3.4790771840       -1.9463323806       -5.1603815766
 O          1.4832925486        4.2354713434       -3.1805097785
 H          0.8006217658        3.6283374979       -3.5870574159
 H          1.6187614477        4.9415833316       -3.8123109508
 O          3.2374926671       -6.0463932819       -0.9762859023
 H          3.3718233234       -6.1397134162       -1.9212937375
 H          3.9465502584       -5.4601115705       -0.6536543274
 O         -0.2146472001        0.4073849917       -2.8251250549
 H          0.0555836376       -0.4499696075       -3.2208166023
 H         -1.1971400435        0.3406057702       -2.7348747937
 O          3.1452893369        3.9856903751       -0.8835555447
 H          2.6170974319        4.2273548184       -0.0767436771
 H          2.5979732378        4.2231558858       -1.6416129473
 O          3.2822705875        2.8808965029        4.4308319103
 H          3.2524258759        3.8200870802        4.1309147493
 H          4.1761369663        2.5709636677        4.2457507351
 O          1.6039875743        4.3934788723        1.1757217481
 H          1.5117026814        3.4843421882        1.5345626356
 H          0.8307945973        4.6096879671        0.6228894369
 O          1.9096187204       -3.6422106455        2.2307822058
 H          1.1182202711       -3.4349539544        2.7583303345
 H          1.5956221366       -4.1114119637        1.4339797029
 O         -6.7200654594        3.2960289239       -2.9090504138
 H         -7.1486132542        2.4170095647       -2.6946406305
 H         -7.4241794278        3.8943078344       -3.1559083081
 O          7.2750829110       -2.6150358590       -0.7359187382
 H          7.6293592995       -2.5136383830       -1.6332643278
 H          6.6108920131       -3.3286902855       -0.7301974474
 O          3.4443842611        0.0729234577       -5.0400022139
 H          3.2604366264        0.7620390563       -4.3792998953
 H          4.1482847326       -0.4787937465       -4.6583520271
 O         -6.3409555787        2.2450611041        1.5048089041
 H         -5.4719681237        1.7708640251        1.5061627690
 H         -6.9645619322        1.6047775405        1.1268300879
 O         -4.0903188851       -5.4310648945       -0.7564227433
 H         -4.4899450024       -6.2950233543       -0.6598633801
 H         -4.4930718257       -5.0417877839       -1.5750164451
 O         -2.2070946728       -3.5138202910        1.8039755509
 H         -2.1890057537       -2.5408750213        1.7365865694
 H         -1.6061315732       -3.7077502726        2.5345128323
 O         -4.3127574089       -1.4823057481        2.4862199410
 H         -3.8509183459       -1.4825220091        3.3404826880
 H         -4.0959180160       -0.6184555147        2.0733763103
 O          7.9815259665        0.5139425215        2.7205301709
 H          7.9157882073       -0.4385975006        2.5257618167
 H          8.8814424340        0.6828425399        2.9993845295
 O         -3.8037158739       -1.8841980199       -1.3687267735
 H         -3.2400749837       -2.4852191106       -1.8898073164
 H         -4.2010666373       -2.4186176142       -0.6615417753
 O         -9.0167700936       -2.2981924842       -0.0400064615
 H         -9.9028000067       -2.6491295939       -0.1176243045
 H         -8.5687228530       -2.7966561202        0.6912629535
 O          4.6097351362       -3.8321869425       -2.9669601153
 H          4.9439625252       -4.0345806569       -2.0862830908
 H          3.6561966025       -3.6350010628       -2.8339494340
 O         -0.2986850231       -3.3497737878        3.8476040306
 H         -0.4371796355       -2.4133058579        4.0827812968
 H         -0.2250426099       -3.8308891703        4.6716228959
 O         -0.5070737001        1.3333740542        2.5141302060
 H         -0.7210047380        1.8663124226        1.7162678176
 H          0.4404713280        1.4972699448        2.6575882845
 O         -2.9887171943       -0.1558083640       -5.4411215296
 H         -2.1565470392        0.1898269663       -5.8476387239
 H         -3.6887301019        0.4638116040       -5.6636354985
 O          3.2015682535        5.2236757855        3.2142418509
 H          2.5807567450        5.1130514553        2.4734528699
 H          4.0710254401        5.0141417121        2.8323534555
 O          7.9172435778       -1.6303065349       -3.2143151160
 H          8.4206102387       -1.8852200946       -3.9870463643
 H          6.9684529721       -1.5304879700       -3.5084267989
 O         -7.5545788652       -3.4100031264        1.8615903015
 H         -7.4678381820       -2.7365417588        2.5504906040
 H         -6.6722238793       -3.4825029276        1.4575388183
 O         -6.6761640391        1.5622003836        4.0544780387
 H         -6.5694579775        1.9133676715        3.1321193068
 H         -7.3771587868        2.0695060923        4.4625650498
 O          0.2503143917       -2.0106546760       -3.7790463330
 H          0.9957423220       -2.4655023732       -3.3278238178
 H          0.5465223657       -1.8127215619       -4.6846734043
 O          4.0086383995       -2.7260005554        3.6828407100
 H          3.1884871828       -3.0484756831        3.2645690889
 H          3.7473511432       -2.0411860533        4.3224279377
 O          3.3441138052       -2.2293716415        0.3878911664
 H          3.9506072569       -1.6042018142        0.8339933184
 H          2.8094360888       -2.6479182190        1.0872343031
