  384
       -651.85092610
 O         -4.3748851560       -5.4672563771       -1.9503017978
 H         -5.2874358319       -5.1584215318       -1.7876473887
 H         -4.1579880795       -6.0524677185       -1.1955251882
 O          3.2890349076        5.5938595240        1.0870873274
 H          4.2296711148        5.5109414548        1.2778413435
 H          3.2262844419        5.8867358801        0.1653303020
 O          2.2366577281        1.3981001874        3.4430009402
 H          1.6476995930        1.4269000228        4.2273511661
 H          1.8220520487        2.0319527805        2.8284624088
 O         -1.5302382305       -4.9836009291       -2.8033824069
 H         -1.2413833030       -5.7598011979       -2.3008372926
 H         -2.4840458993       -5.0612215822       -2.8797355953
 O          4.2121412032        0.3747988311        1.0509577203
 H          3.6071752174        1.1003909805        1.2708273074
 H          4.2711460109        0.4112029103        0.0702704259
 O         -3.7973659268       -0.3727986481        0.3146344742
 H         -4.5605278878       -0.8679592947       -0.0458624781
 H         -3.5217518565        0.2305507518       -0.3987501290
 O         -2.4538266783       -1.3585534951        2.6306825006
 H         -2.7157502934       -0.8056714357        3.3936052484
 H         -2.9503229715       -1.0489519095        1.8603885478
 O          2.0331911162       -1.0458621190        2.5927353238
 H          2.6559341416       -1.5398620992        3.1681252284
 H          2.1975853859       -0.0937000367        2.7986534896
 O         -0.1216034836       -2.8528782119        2.2469251249
 H         -0.8860403744       -2.3465972223        2.5590079211
 H          0.6544878486       -2.2947679593        2.3903848640
 O          3.1687742341        6.5601859826       -1.5094837771
 H          3.1630053657        5.9347788835       -2.2531289506
 H          4.0121057231        7.0129742459       -1.5689587915
 O          2.9545328965        2.7362598662       -5.5737201997
 H          3.5794756742        2.3677901528       -4.9106512626
 H          2.7094330114        1.9538064933       -6.0907230050
 O          0.4377162170        3.0407412314        2.3421961140
 H          0.7663272026        3.8982722125        2.6940557700
 H          0.3879729760        3.1617124033        1.3826581668
 O         -5.1308826397        4.4853715294       -0.4626574323
 H         -5.2507039554        4.3742257319        0.5013253198
 H         -4.3067412286        4.9892615333       -0.5288576380
 O         -0.2128202103       -2.5192187469       -2.4060874108
 H         -0.6882025074       -3.3581670628       -2.4796637335
 H         -0.5689291760       -2.0444063841       -1.6160056275
 O         -4.2217732437        0.2958744737       -5.8550478396
 H         -4.8017432155        0.8697417961       -6.3546538249
 H         -3.6663022793        0.8861712846       -5.2804882855
 O         -8.2754079083       -1.1552022388       -0.0448936446
 H         -8.5566885006       -0.2150930315       -0.0738792814
 H         -8.6360370457       -1.5208384458        0.7981355918
 O         -1.3666147527        5.2248014471       -2.5943892114
 H         -0.5825689690        5.6945021638       -2.2776088257
 H         -1.1535203422        4.2691437546       -2.5332577209
 O         -1.4349772091        3.5226202767       -5.7421334613
 H         -1.0166579589        2.7634191086       -6.1838752209
 H         -0.6983051217        3.9111686910       -5.2379004696
 O         -0.9472934335        0.1025926680       -3.3309238841
 H         -0.3704624091       -0.4632856505       -3.8732748021
 H         -1.6001192175       -0.4950017090       -2.9216120706
 O          1.2779697792       -3.5095711976       -0.1763666418
 H          1.3157934628       -2.5399504475       -0.3055624646
 H          0.3492739429       -3.7673781849       -0.0138944342
 O         -3.8857990007        1.5302027316        2.1965433272
 H         -2.9477731153        1.4988423959        2.4793985816
 H         -3.9905319894        0.8456813718        1.5083883351
 O          2.3837962110        2.8465385007       -2.0766918228
 H          2.0208905329        2.2363459626       -2.7542495896
 H          2.8476349519        3.5489780915       -2.5696461973
 O         -0.5324945034        2.6852891757       -2.5020914070
 H          0.0788986059        2.9829624798       -3.1971894938
 H         -0.6349909255        1.7328579910       -2.6494884578
 O         -5.8245782158       -1.5477112326       -0.9497445485
 H         -5.7983403707       -1.1040280525       -1.8081603732
 H         -6.6896038886       -1.3242113453       -0.5420227402
 O          4.6722551131       -2.2458552415        1.1934598402
 H          3.8973710813       -2.7667377713        1.4839896669
 H          4.4389125652       -1.3007814151        1.2512167873
 O         -4.4662559598       -4.3034959743       -4.5355663881
 H         -4.4940750509       -4.9052406284       -3.7837996322
 H         -5.2682330909       -3.7600096398       -4.4632316065
 O          0.8960190418        3.9632362487       -4.4337263155
 H          1.3515594773        4.7494803422       -4.1278671787
 H          1.5817636188        3.4258865808       -4.9024668547
 O          5.1079501454        3.3870082808       -0.4881232893
 H          5.5653260115        3.8781148758        0.2305669840
 H          5.5666150498        2.5291860980       -0.6212704940
 O         -3.0151795502       -1.4112772566       -2.7346903463
 H         -3.8677606303       -0.9935991247       -2.9280118074
 H         -3.1535518305       -2.0515694622       -2.0102915863
 O         -1.4969097578        1.4671337121        3.3319692754
 H         -0.8119071147        2.0889707230        3.0149560398
 H         -1.8371158063        1.8070416260        4.1798428578
 O          2.7167074367       -3.8073207108        1.9949175178
 H          2.0893087554       -3.7352947728        1.2363470591
 H          2.2194611014       -3.8804174473        2.8269815618
 O         -2.7509744946        1.7689881934       -4.2482775940
 H         -2.3056318327        2.5025694747       -4.7306233202
 H         -2.0314764839        1.1223249657       -4.0396358588
 O          5.8516801578        4.8863663864       -2.5838869263
 H          6.4337240525        4.3047419760       -3.0957083983
 H          5.6155802461        4.3692007411       -1.7814853565
 O         -5.8536638778        1.8894474552       -1.0127295932
 H         -5.8223826980        2.8371679699       -0.7940958501
 H         -4.9288721507        1.6820498841       -1.2735336178
 O         -6.3508116431       -0.4586698585        4.8837672978
 H         -5.7981138006        0.3533374739        4.9363210534
 H         -7.2308492858       -0.1683959983        4.6113272501
 O          2.5377887490        0.0988771901       -6.4616739620
 H          1.9713932378       -0.5102237011       -5.9574856845
 H          3.4409187503       -0.1649924620       -6.2450718194
 O          2.2298025843       -1.5409533868       -2.8675892777
 H          1.3531044169       -1.9224182317       -2.6518139679
 H          2.8690076134       -1.8686828115       -2.2029197310
 O         -3.2678452879       -0.4930063168        5.0000586987
 H         -2.5249394310       -0.3024299334        5.6028123759
 H         -3.8226015828       -1.1427769782        5.4338249245
 O          7.1153588450       -0.7784885890        0.8199792602
 H          6.6858097082       -0.1042998229        0.2528299825
 H          6.8488705258       -1.6603141999        0.5059283937
 O          4.1534076168        0.3926792124        5.1084946149
 H          3.8413539738       -0.5281586337        5.0398057761
 H          3.7283675674        0.8667456014        4.3725057691
 O          3.8405923919        0.6874361968       -1.5605282787
 H          3.2155757436       -0.0250178457       -1.7342548944
 H          3.3318531286        1.5238677860       -1.5527439149
 O          2.8797092601        4.1917270249        5.1233485931
 H          2.8689704443        3.5509285343        5.8453715054
 H          3.5726311411        3.8744627500        4.5130059151
 O          5.9530413672       -5.6042243872        2.8838418825
 H          5.1881460441       -5.9408297941        2.3897063563
 H          6.7158977529       -5.7287446178        2.3148833089
 O         -6.5901093508       -4.1478652538       -1.2004626188
 H         -7.4482215179       -3.9731424472       -1.6088191889
 H         -6.1835781077       -3.2614431637       -1.0982317795
 O         -1.2297387080       -4.4284481538        0.1653288964
 H         -1.9159105724       -3.9365527705       -0.3360418255
 H         -1.6321298162       -4.6732791236        1.0180915387
 O         -7.2043209607       -3.5499397439        3.0185252668
 H         -6.6973286361       -2.7908399474        2.6707043426
 H         -6.9816777856       -4.3115255418        2.4518757976
 O         -1.2632746367       -6.9150094205       -0.8211901951
 H         -2.1021174773       -7.2881290115       -0.5390578725
 H         -1.2205340406       -6.0184886152       -0.4146284164
 O          1.3282073338       -6.6513185211        0.0308309560
 H          1.5393591174       -6.1346398807       -0.7624238607
 H          0.5081884717       -7.1095886790       -0.2032533901
 O         -4.9652662043        1.7873253142        4.6295725689
 H         -4.2004912309        1.9955872207        5.1842023093
 H         -4.5825666267        1.5813427918        3.7481219123
 O          5.8875187554       -2.9936758513        3.3991360665
 H          5.8694527860       -3.9754309377        3.3513372957
 H          5.5951773205       -2.6959290818        2.5017732355
 O          4.3013185729       -2.3938513862       -1.4456830421
 H          4.3897166996       -3.2960498288       -1.8153842912
 H          4.5222314498       -2.4370959776       -0.4939147731
 O         -2.1286689356       -2.9815439081       -4.7529987092
 H         -2.9288732390       -3.5364958887       -4.8280922988
 H         -2.3076392437       -2.4161285120       -3.9726487898
 O         -5.9656271530        4.8521314506       -3.0180605251
 H         -5.6700416903        4.7985389278       -2.0919600659
 H         -5.1826054847        5.1026018814       -3.5328922495
 O         -1.9224915789        3.1686541446        0.1091463896
 H         -1.0008553521        3.2118910820       -0.2126230035
 H         -2.3070940252        4.0476539635       -0.0814444221
 O         -1.1775547936        0.0174719795        6.6951660139
 H         -0.8883089266       -0.8932407572        6.8031544993
 H         -0.4719071730        0.4536654380        6.1775567114
 O         -8.4258957543        4.3679467023       -1.7826312934
 H         -8.4528099674        3.4758675503       -2.1741302261
 H         -7.7345295290        4.8307373873       -2.2718403618
 O          1.5549308226       -4.0894283359        4.4925341992
 H          0.7644907144       -3.6784607307        4.9103632253
 H          1.2715807899       -4.9681684881        4.2161522029
 O          0.3776647644       -5.5950788722        2.4422225321
 H          0.7551995001       -5.9531102139        1.6195932653
 H          0.2328893179       -4.6432419847        2.2904881369
 O          6.4400989670        1.0939834334       -0.9080820735
 H          6.2816062004        0.5059745993       -1.6778678746
 H          7.2624929036        1.5933763480       -1.0825710189
 O          3.0160716387        2.7680877609        1.0004623532
 H          3.7432871003        3.0114306618        0.3804159501
 H          2.2660215369        3.3024880198        0.7080882888
 O          6.2404019273        1.3908926793        2.4549105201
 H          5.6228777374        0.9319599346        1.8459806201
 H          6.5280909640        0.7201415296        3.1009870862
 O         -4.8581209263        4.0109909844        2.1582891564
 H         -4.5241283336        3.0896027262        2.0795181501
 H         -5.6882872690        3.9453585265        2.6429547564
 O          0.5721486075       -1.3942604787       -5.1375872155
 H          0.5938826145       -2.3005488237       -4.8031584012
 H         -0.1413817320       -1.3703511002       -5.7861792763
 O          2.9655877676        1.9912051054        6.9048855315
 H          3.3813625600        1.9467638736        7.7645817777
 H          3.4660585497        1.3811251385        6.3132881694
 O         -5.5218857755        2.3543269572       -3.8995258851
 H         -4.5707459536        2.4374826402       -4.0391436050
 H         -5.8027099265        3.2404338275       -3.5904087518
 O         -2.1440743391        4.3564198866        2.5710706848
 H         -3.1070301247        4.4673639641        2.5996427690
 H         -1.9878184571        3.7280435533        1.8378870432
 O         -5.4133449625       -0.2851498062       -3.4852934776
 H         -5.0501978727       -0.3243116843       -4.3925032041
 H         -5.5696300968        0.6725081610       -3.3660112941
 O          3.1778707483       -3.1065049069       -4.7874464090
 H          2.8110361663       -2.4831933404       -4.1121515571
 H          2.4181170240       -3.5831068608       -5.1291669095
 O          7.1175199733       -3.3156243970       -0.0522275798
 H          7.7121014022       -3.4992524103        0.7000061913
 H          6.5961449659       -4.1311660151       -0.2136184158
 O         -8.0050336385        1.7726501057       -2.6158806653
 H         -7.6794840190        1.8033412309       -3.5175982562
 H         -7.1977995189        1.7553960813       -2.0520389440
 O         -9.1691190916        1.3562592649       -0.1541402916
 H         -8.5932826403        2.0607036206        0.2240561771
 H         -9.1276517269        1.4903296263       -1.1090707165
 O          0.7041547761        3.7152752866       -0.2516319797
 H          0.6373734011        4.6681560409       -0.4611239209
 H          1.1970495114        3.3166602443       -1.0052645790
 O         -3.9091546893       -6.7172009899        0.4116867160
 H         -3.3162448756       -6.4066450354        1.1175419207
 H         -4.8018439586       -6.5355071076        0.7496735647
 O         -5.7183302356       -1.3065959816        2.4161456967
 H         -5.9761837186       -0.5119444044        1.9129668155
 H         -5.7894617498       -1.0422077797        3.3565057178
 O          1.5191075065        5.3421298398        3.1208381298
 H          2.0283636468        5.0507469484        3.9016466053
 H          2.1866005013        5.4691486181        2.4180972940
 O         -2.7017109536        5.6990718585       -0.3880078038
 H         -2.1981601162        6.3040110151        0.1624807317
 H         -2.2630721258        5.6669833647       -1.2703997523
 O         -1.8571323764       -0.9834081171       -6.4987505473
 H         -1.9998258452       -1.7873140045       -5.9488496795
 H         -2.7240846059       -0.5516397321       -6.4915984522
 O         -5.4073095809       -3.0444287578        5.0846394965
 H         -6.0758375469       -3.4778152399        4.5283602214
 H         -5.7645538916       -2.1563742457        5.2344523117
 O         -2.2724255894       -5.6294095457        2.3653060283
 H         -1.3399945266       -5.8800762111        2.5339747951
 H         -2.5341985981       -5.0668128581        3.1105992425
 O         -0.1196987735       -0.6566600739        4.2519593569
 H         -0.6569248901        0.0639242606        3.8724178095
 H          0.6620170923       -0.7620699009        3.6923974622
 O         -0.5921006150        6.3987059819        1.6278412051
 H          0.1869774519        6.3041432796        2.1922570693
 H         -1.2075522307        5.7136715862        1.9584702251
 O         -3.5237658032        4.8565900401       -4.2858697132
 H         -3.0781231592        4.5627568526       -5.0864237121
 H         -2.8100673202        5.1211854085       -3.6886037065
 O          1.6182838001        1.0165880387       -3.8035585178
 H          1.8395024310        0.0898807399       -3.6272997343
 H          1.0178041852        1.0375851725       -4.5578968604
 O         -9.2644746340       -1.9791286464        2.2717552059
 H         -8.7062606503       -2.7129442252        2.5922670628
 H         -9.0511499620       -1.2302215970        2.8534381995
 O         -2.5029169800        2.3594890283        5.7541189601
 H         -2.1345161338        1.7092109815        6.3635368433
 H         -1.9531119963        3.1518535068        5.7952689780
 O          0.3446932014       -4.1794397107       -4.7568525224
 H         -0.5757737625       -3.8814921637       -4.5795499836
 H          0.2559262480       -4.9953710130       -5.2484340479
 O          6.0474433645        4.7904115696        1.5873835512
 H          6.9586942845        4.4531298872        1.6494899496
 H          5.5657298875        4.3568183703        2.3240148338
 O         10.9585595901        2.3613056610       -1.2010561625
 H         11.0242627189        1.5680266802       -1.7383117743
 H         11.0236321952        2.0842685447       -0.2753124120
 O          8.9981734547       -0.6415161014        2.7379535514
 H          8.5405184836       -0.4764200923        3.5686849937
 H          8.2921513264       -0.6352655790        2.0592404402
 O          8.8206048361        0.6309161653       -3.1711261294
 H          8.9896486197        0.3920982346       -2.2372943578
 H          8.6065173528       -0.1912050233       -3.6152097147
 O          4.9141621791       -0.9446248341       -5.1567214791
 H          5.4616173492       -1.0135904721       -4.3477636149
 H          4.4090713789       -1.7697304887       -5.1821066681
 O          8.3315837333        2.9416329814       -1.2170523700
 H          9.3006435678        2.8184784626       -1.2877077500
 H          8.0163485184        3.1561621610       -2.1090641449
 O          8.1571979832        3.0523884321        1.4920279131
 H          7.5019440867        2.3854244975        1.7798148720
 H          8.1449532502        3.0677474358        0.5194228517
 O          4.7359890611        1.5434646797       -3.9617579922
 H          4.5046398478        1.2100729583       -3.0691684423
 H          4.8316228491        0.7467270240       -4.5066137673
 O          7.1600945759        2.7445916401       -3.7032694257
 H          7.8055305934        2.0159625127       -3.6946552751
 H          6.2923790690        2.3131335353       -3.8369507346
 O          5.6987288379       -5.5014967747       -0.5571292520
 H          5.2758344077       -5.3835650559       -1.4176619877
 H          4.9955211610       -5.7691930977        0.0644742097
 O          4.5296691151        3.2795056733        3.1939032372
 H          5.1808420842        2.5509667447        3.1040414133
 H          3.8734961699        3.1249497652        2.4832907278
 O          6.1078609583       -0.8806373550       -2.7186014255
 H          6.9295274125       -1.4116607303       -2.6166710553
 H          5.4153338526       -1.3867706162       -2.2412832055
 O         -8.5030492888        0.4978176976        3.3087927497
 H         -7.9139982792        0.5644050899        2.5343064232
 H         -9.3958616998        0.7280614985        2.9748514657
 O         -0.6423125787        4.1767740854        4.8662307064
 H          0.0349926196        4.8525257153        4.7882685033
 H         -1.1677991841        4.2251492404        4.0414844028
 O         -3.3286609575       -3.2668987583       -0.9015162271
 H         -3.7175512201       -4.0404972998       -1.3639545723
 H         -3.7805176398       -3.2001732249       -0.0376720801
 O         -8.8078170162       -2.7819679827       -2.0983054745
 H         -8.6653523331       -2.1435900839       -1.3602717879
 H         -9.7527439285       -2.8900886734       -2.1937848813
 O          3.4920540457        4.8050197816       -3.6058370034
 H          3.5308142327        4.4185463268       -4.4869413263
 H          4.4430814004        4.8490865549       -3.2940349837
 O         -7.7068028756        3.4708470806        0.6198587626
 H         -7.9453473508        3.9538131397       -0.2051612215
 H         -8.0188782116        3.9872231012        1.3625562006
 O         -3.2841113343        1.5370858303       -1.5271450023
 H         -2.7671757039        2.1661460480       -0.9797687572
 H         -3.0460148743        1.6942615272       -2.4548219895
 O          0.6030107692        1.8056871939        5.5385866432
 H          0.2331296183        2.6795807889        5.3129364830
 H          1.3061878497        1.9470771602        6.1890651134
 O          8.4873173667       -3.3828825810        2.2907114150
 H          7.7063140147       -3.2891618902        2.8560672839
 H          8.9744776569       -2.5519794480        2.3964251989
 O         -6.1463475566       -5.2973074808        1.2056920282
 H         -5.4123942908       -4.6589982830        1.3387304344
 H         -6.5214014454       -5.0371316141        0.3466172848
 O         10.3008357175        1.3530687607        1.3480532363
 H         10.0738167512        0.6532424920        1.9850619527
 H          9.6406088155        2.0595145250        1.5019551761
 O          4.1846557481       -4.7074568795       -2.7791474409
 H          4.1256332715       -4.2592491769       -3.6385851260
 H          3.2599583170       -4.9756650407       -2.5838483701
 O          3.7804690692       -6.1333271637        1.2652276944
 H          3.0327016803       -6.6146590957        0.8889199295
 H          3.4090144235       -5.2714421343        1.5568953015
 O          1.5836493439       -5.0500089402       -2.3150607113
 H          1.0516424006       -4.7706305071       -3.0756227508
 H          1.4573936213       -4.3609731334       -1.6269954480
 O          8.3026658260       -2.3064992861       -2.2284932192
 H          8.9732629826       -1.7655659396       -1.7938202604
 H          7.8964794715       -2.8251505396       -1.5011654249
 O         -7.0889284217        2.9638556365        3.4864815335
 H         -7.8251804338        2.3542043056        3.6250235546
 H         -6.3824690595        2.6468758935        4.0799082854
 O         -6.5953800294        1.0120114928        1.3996512066
 H         -6.5838205568        1.8511290295        1.8823697157
 H         -6.3759313663        1.2529801604        0.4752045818
 O         -4.3325389849       -3.3717757535        1.5392194292
 H         -3.7767143090       -3.6316859066        2.2887816045
 H         -4.7852175408       -2.5444606392        1.8050177562
 O         -6.6850813887       -2.7267800067       -3.9870281500
 H         -7.4937002037       -2.7991797529       -3.4650933940
 H         -6.3517440899       -1.8311437940       -3.8450855734
 O         -0.6768796095       -2.9374861982        5.4858681977
 H         -0.5271853752       -2.0847527402        5.0263164712
 H         -1.4637569325       -3.3254177063        5.0752128133
 O          0.4677839614        6.3078696141       -0.8622836664
 H          0.1415390883        6.5305455848        0.0328032968
 H          1.3624660022        6.6569810079       -0.9582358007
 O          6.6831578078       -0.4879687348        4.3531487394
 H          6.4697573008       -1.3953276441        4.0848715951
 H          5.9005500965       -0.1528821276        4.8193256228
 O        -10.7852602765        0.7474760677        1.9521182089
 H        -11.0077220233       -0.1811386825        1.8491983681
 H        -10.3783943659        1.0300322047        1.1133775192
 O          9.3305105506       -0.2314072382       -0.6423673018
 H          8.5426367630       -0.5091418824       -0.1306489387
 H          9.8240385237        0.3276189232       -0.0134261719
 O          3.5580176378       -2.1832912435        4.4578421046
 H          4.4131062339       -2.5643098952        4.1564645005
 H          2.9845672376       -2.9247447812        4.7004543298
 O         -3.0033910650       -3.5747639245        4.0066652098
 H         -3.8409066528       -3.4428087204        4.4961363731
 H         -2.7931429321       -2.7177710545        3.5746521249
 O         -0.1411875772        1.1860560127       -6.2035442966
 H         -0.7687544046        0.4550970436       -6.3462968637
 H          0.6484611504        0.9740475038       -6.7094912611
 O          1.5734901336       -0.9061432067       -0.1596015019
 H          1.8014108613       -0.9194120634        0.7838613157
 H          0.6691641963       -0.5821430789       -0.2390828466
 O         -1.1592002640       -1.1813629200       -0.2428498118
 H         -1.2098479052       -1.8478501677        0.4498315090
 H         -2.0271612076       -0.7662305804       -0.2962443927
 O          8.1846816374       -1.7740641283       -4.8935670963
 H          7.2868045508       -1.7552360364       -5.2310243028
 H          8.2134141329       -2.4003352618       -4.1594608339
