  87
       -142.30438203
 H         -1.2400695996       -1.1694425930       -1.0564042407
 C         -0.8567027667       -0.1485961832       -1.1022837423
 H         -0.9578007523        0.2263227440       -2.1226777549
 C          0.6036924888       -0.1445706670       -0.6856534508
 H          0.9814800433        0.8757480469       -0.6396252026
 H          1.1878447851       -0.7196494845       -1.3991833909
 O         -1.5736226147        0.6774492846       -0.1999760574
 H         -2.5304683517        0.4601695333       -0.3187865862
 N          0.6942971078       -0.7529958069        0.6495349599
 H          0.2955122902       -1.7200048894        0.5950044900
 H          0.1437385938       -0.1758980753        1.3160941169
 H          1.6891645635       -0.8435534812        0.9669017679
 O         -2.7899764415        0.3020264600        2.9151590454
 H         -1.8700381722        0.6263559487        2.7993214502
 H         -2.9717044449        0.2705025521        3.8549086770
 O          0.0795121358       -2.3553349690       -3.6689818748
 H         -0.6610288709       -2.7256703055       -3.1644295918
 H         -0.2136396195       -1.4906750793       -4.0048059647
 O          1.9826769215        0.3859432687        3.9677975875
 H          2.2481146407        0.4939773521        4.8821320309
 H          2.7272095585        0.6853932901        3.4158254169
 O          2.3894704606       -3.6107381941        1.9751630353
 H          3.0403892247       -4.2492445821        2.2675449407
 H          2.8718376110       -2.8087289476        1.6972134989
 O          3.3046239498       -1.1752302004        1.1850662431
 H          3.6346884872       -1.1548619737        0.2467751106
 H          3.7158939849       -0.4228308014        1.6377124550
 O         -0.8022325111        3.7219786957        2.3376578280
 H         -1.5371841692        3.8112343669        1.6807816996
 H         -1.0364809907        4.2740312378        3.0845356150
 O         -2.8045643954        3.9596204248        0.5943302182
 H         -3.3485841155        3.1358979312        0.7444784964
 H         -3.4215060026        4.6907789705        0.6446030863
 O         -0.8447259853        3.0587551987       -1.1362411147
 H         -1.1173095571        2.1948318228       -0.7449526162
 H         -1.5558534095        3.6588249239       -0.8769858187
 O          0.4972152785       -2.0366446483        3.2894787587
 H          1.1198031082       -2.7115182421        2.9829023890
 H          1.0246431433       -1.2930146608        3.6034394622
 O          4.0406546984        1.2115642302        2.3199746490
 H          4.9293429517        1.4497821005        2.5880571420
 H          3.8140472616        1.7733060923        1.5427813525
 O          3.9012967999       -1.0446860756       -1.3488677181
 H          3.3606508783       -1.7540293291       -1.7392235643
 H          3.5817508684       -0.2108673026       -1.7328846721
 O          0.4582646422       -3.3635009409       -0.0380751033
 H          1.0951983789       -3.2754556544       -0.7744099996
 H          0.9499015662       -3.7608757581        0.6927574257
 O         -3.7136392474       -2.7847152325        0.1031531983
 H         -2.9881116098       -2.5932580234        0.7373195302
 H         -4.3295820409       -3.3699246355        0.5444780020
 O         -1.7711294778       -1.9657637619        1.7199735932
 H         -2.2332973220       -1.1926975733        2.0828193822
 H         -1.0772302258       -2.1830767468        2.3606016791
 O          1.1663807193        3.8331798645        0.4187823878
 H          0.6576856126        3.8941026158        1.2404435826
 H          0.4985380750        3.5919440286       -0.2634247493
 O         -1.7801781655       -3.2380272967       -1.8002705490
 H         -1.0988146181       -3.4978918764       -1.1638954059
 H         -2.5996196699       -3.1930561018       -1.2805473598
 O          0.4749926956        2.0704077258       -3.3751207502
 H          1.3220962988        1.8246985693       -2.9773464025
 H         -0.0266397840        2.5456981258       -2.6927094482
 O         -0.2531928781        1.0656113646        2.5332742859
 H         -0.3714695995        2.0251150364        2.4091873635
 H          0.4661246584        0.9295869720        3.1695570125
 O         -3.1799113312       -0.9656844559       -3.2408887278
 H         -2.8730570256       -1.8583626570       -3.0512607259
 H         -2.4818215320       -0.5391319097       -3.7592122352
 O          2.9992319508        1.4518959356       -2.1805754452
 H          3.6027432850        1.7996749854       -2.8400086019
 H          3.1913919979        1.9196398099       -1.3408344199
 O          2.1172990781       -2.9543002285       -2.1777767172
 H          2.5067190768       -3.7392680329       -2.5661073205
 H          1.3909907818       -2.6799466358       -2.8036635038
 O          3.4635881505        2.7276347485        0.1808754666
 H          2.5524580618        3.1339574339        0.3103558470
 H          4.0573276901        3.4737811821        0.0765646728
 O         -0.8838726292        0.0826543617       -4.5125856788
 H         -0.3795762982        0.8503363491       -4.1517520385
 H         -0.9543611014        0.2267903730       -5.4576887305
 O         -4.2334750056        1.8339303616        1.1016179254
 H         -4.4118631239        1.2392757606        0.3582444943
 H         -3.7969172930        1.2833801260        1.7728506531
 O         -4.0162947627       -0.1790433073       -0.7926413930
 H         -3.8822693547       -0.3180845469       -1.7511642879
 H         -4.0792517014       -1.0773098583       -0.4255718414
