  189
       -320.71048207
 O          2.5720513536       -4.5774931243       -2.7500464721
 H          2.2951753768       -4.8827710420       -1.8698308291
 H          1.8190680742       -4.0397598864       -3.0337882728
 O         -3.5004346243       -3.2761094001        2.3335892889
 H         -2.8264411990       -3.2481495173        3.0549141341
 H         -4.2424102505       -2.7344436218        2.6629082136
 O         -1.5325171540       -3.8803503695       -1.3341720483
 H         -2.3282667918       -3.9850133169       -1.8740416979
 H         -1.7942861022       -3.2338372455       -0.6566812050
 O          0.6601462476       -2.6676932984       -2.3691088458
 H          0.3117124647       -1.7702176478       -2.4869659656
 H         -0.0977509341       -3.1857058549       -2.0313187937
 O          5.9363377542        2.3226207008       -0.5424458780
 H          6.8064377051        1.8953061173       -0.4863174760
 H          5.6466724954        2.4142104606        0.3874609149
 O          5.0842485068       -0.8730242504       -0.8067045679
 H          5.6248766181       -0.8230916121       -1.6185923796
 H          4.2880057780       -1.4003289162       -1.0392847201
 O         -1.4016780371       -0.0693540049        4.5556591698
 H         -0.5521453313        0.2305337676        4.9125833868
 H         -1.3220457190        0.0538205916        3.5870973949
 O          7.7096634275        0.9977739400        2.3727668238
 H          8.5274439879        1.0254997567        2.8699472135
 H          7.9534533432        0.9720087935        1.4211250051
 O         -5.0996662350       -4.2771044349        0.2755682575
 H         -5.8107494488       -3.6331201620        0.3966124633
 H         -4.4932445225       -4.1567155059        1.0221951676
 O          0.4617619411       -2.4894182131        0.6270076110
 H          0.6965187929       -2.6370729536        1.5710548942
 H         -0.5034421564       -2.4024175823        0.6080496880
 O          2.6185925161       -1.3299680196        4.5156497873
 H          3.3018322188       -1.7767142606        5.0169554093
 H          3.0842130599       -0.6928662593        3.9098048461
 O         -0.9504831587        3.3160488286        2.7682479951
 H         -1.5647731898        3.0213519802        3.4685431262
 H         -1.3978989535        3.0348678072        1.9432269877
 O          1.0131275785        1.0614994874       -4.2013676995
 H          0.3158170714        0.5424105570       -3.7642151492
 H          1.8395090733        0.6266619446       -3.9091176914
 O          1.1396560051       -4.9211109675       -0.3490781839
 H          0.8904351881       -3.9959406742       -0.1355290018
 H          0.3176966282       -5.3449378188       -0.6047489338
 O          3.5245412338        0.8270968605        0.4847404109
 H          4.1808156786        0.2478333189        0.0480044621
 H          3.4471574179        1.6173759952       -0.0826314670
 O          3.2296380515       -2.0049001823        1.6688161893
 H          4.1525412036       -1.8195917601        1.8665918755
 H          3.1096092900       -2.9631949523        1.8217722921
 O          1.1686159451        3.4365824713       -2.8280730720
 H          1.1394899021        2.5874120990       -3.3137089649
 H          1.9594939180        3.3960882971       -2.2685405714
 O         -2.1981024535       -1.9450553094        0.5496152763
 H         -2.8013445389       -1.3095888782        0.1292335379
 H         -2.7331790533       -2.4726191501        1.2090164599
 O         -6.6232149444       -1.8895085300        0.5186899539
 H         -6.2202545645       -1.7995718285        1.4010395827
 H         -7.3561641960       -1.2471462643        0.5206087895
 O          0.9766078771       -3.0503624845        3.1799601824
 H          1.5109635020       -3.8469159591        3.0893333581
 H          1.5393178750       -2.3886454350        3.6294152023
 O          1.1366669730        0.8147447623        5.1845543946
 H          1.6314098992       -0.0217070623        5.0805724177
 H          1.4486962860        1.2399689927        5.9830624830
 O         -1.6404044361       -2.7872531093        4.1433306724
 H         -0.7346541674       -2.9800613528        3.8615119753
 H         -1.6403768093       -1.8533957850        4.4234739458
 O          1.2336916166        1.8063481959        2.5401830171
 H          0.4291932047        2.3627237604        2.6426223189
 H          1.3960000286        1.4579420230        3.4269681917
 O         -4.1934374147       -3.8129981900       -2.1401249557
 H         -4.6077430113       -4.4307035052       -2.7428430169
 H         -4.4878444453       -4.0756439552       -1.2269253632
 O          5.2845957844        1.4262529005       -2.9945584695
 H          5.2627914482        2.2284373485       -3.5164374895
 H          5.4900596426        1.6964241838       -2.0731375168
 O          3.0247073733       -0.1164967804       -2.9099409407
 H          3.3025623522       -1.0103173369       -3.1635588923
 H          3.8204336175        0.4413583661       -2.9194691779
 O         -4.4192946468        0.6889937647        2.2624167294
 H         -4.1171613675        0.4909558412        1.3511808684
 H         -5.2657234627        1.1829052678        2.1587672712
 O         -1.2449364177        0.2452063067        1.8856950596
 H         -1.6095087626       -0.5754056225        1.5072396048
 H         -1.7700781321        0.9787550287        1.5262990872
 O          3.9536354175        0.4527187275        3.1072380146
 H          4.7365405862       -0.1267747963        3.0093697602
 H          3.5844879554        0.5360707617        2.2069068848
 O         -3.0687117372       -0.2741272159       -3.4235110964
 H         -3.8936879736       -0.4846523488       -2.9789348793
 H         -3.0995800771        0.6600927200       -3.6994307858
 O          2.8060913465        3.7262647299        1.5529466507
 H          2.2925759210        2.9762964608        1.9412004418
 H          3.7025578159        3.6447657029        1.8980210249
 O         -8.2340990518        1.8839094648       -1.2846254389
 H         -7.8781384904        2.7060617696       -0.9221854376
 H         -7.5900766332        1.5905094776       -1.9523080443
 O          6.3823502041       -1.1137384361       -3.1387973692
 H          6.1677124604       -0.2210534559       -3.4439031067
 H          5.6859857649       -1.7085303343       -3.4662996052
 O          0.3792674398        5.0610092639        1.0530390306
 H          1.3032223252        4.8154246548        1.1971489224
 H         -0.1018099276        4.7016548502        1.8128230162
 O          6.4812608227       -2.6893901023        0.4911925311
 H          6.0155852207       -3.5132061319        0.2789184195
 H          5.9460808374       -1.9845757036        0.0508553276
 O         -6.5406130557        3.7673901987       -0.0485367918
 H         -6.2534702292        4.6215224026        0.2762538505
 H         -5.7479726983        3.3350769681       -0.4492394559
 O          2.9560709591       -2.4060436402       -0.9561122421
 H          2.1009538999       -2.4757479922       -1.4277768540
 H          2.7821132982       -2.2158157180       -0.0138144524
 O         -6.1327625134        1.0399257178       -2.8311160710
 H         -6.0164894427        0.0975619849       -2.6353289578
 H         -5.9443585178        1.1755824035       -3.7814835196
 O          2.8849295372       -4.6950281592        1.7652543124
 H          2.1899865328       -4.9411607579        1.1294226526
 H          3.7050965412       -4.8584188680        1.2764999447
 O         -6.7154173861        1.9549789685        1.9407544243
 H         -7.3506044919        1.2653501774        1.6823860899
 H         -6.7768780720        2.6265794154        1.2319840420
 O         -8.3972984727        0.1704718419        0.6886066613
 H         -8.3709616431        0.7747280292       -0.1038824545
 H         -9.3237863224        0.0411031467        0.8926293408
 O         -5.4777874991       -1.5698765915        3.0005435764
 H         -5.8901755565       -1.5086026753        3.8616335707
 H         -5.0263383346       -0.6993979274        2.8267727195
 O         -5.2097811300        1.5149642164       -5.2890931997
 H         -5.0601168878        1.0020992497       -6.0832736265
 H         -4.3505906963        1.9056210359       -5.0341490447
 O         -4.2772924198        3.7678285247        2.0098287020
 H         -5.1112204188        3.3199370877        2.1876203489
 H         -3.7980426939        3.7584915129        2.8452634002
 O          6.0181049346       -1.1869478096        2.6748224847
 H          6.3002262159       -1.8389326241        2.0036296408
 H          6.6818521815       -0.4782874100        2.6345622081
 O          8.3370215750       -1.4752268129       -1.1369809386
 H          7.8271881750       -1.4786753164       -1.9595167526
 H          7.8607663217       -2.0556226862       -0.5156336269
 O         -0.5504794022        3.0258811856       -5.3119723295
 H          0.0340499193        2.2582702995       -5.2196028091
 H         -0.1373543745        3.7227320146       -4.7939372825
 O         -3.7381684326        0.1071321939       -0.2690941101
 H         -3.8049823415        1.0348279204       -0.5689068504
 H         -4.3799985742       -0.3941410103       -0.8124780067
 O         -2.8773966321        2.3405789336       -4.1959158836
 H         -2.0684826792        2.5350722383       -4.7186987486
 H         -2.9872698786        3.1095144282       -3.6132622731
 O         -3.0040962772        4.4187504420       -2.3962228494
 H         -2.1519237164        4.3431505456       -1.8983820237
 H         -3.1477757851        5.3486399122       -2.5708490367
 O          8.3317009363        0.9686500000       -0.2430619533
 H          8.3254681063        0.0243591833       -0.5762875314
 H          9.1603659837        1.3452643029       -0.5407700408
 O          4.5972628653       -4.4814628036       -0.4149616068
 H          3.9763259283       -3.7751184010       -0.7072277625
 H          4.6351461322       -5.1127813030       -1.1339252054
 O         -5.3440244975       -1.3908319436       -1.7927427440
 H         -5.9057372050       -1.6107102588       -1.0175476617
 H         -4.9134084250       -2.2345704857       -2.0445694013
 O         -2.3352067777        2.4589913879        0.6354513810
 H         -3.1296838012        2.9494058811        0.9249535096
 H         -1.8937884565        2.9788246976       -0.0553157261
 O         -0.7822139628        3.9646399641       -1.0708442002
 H         -0.3637072446        4.4855409899       -0.3453982472
 H         -0.0776313764        3.8254356300       -1.7426100470
 O         -2.9685116592        2.1415976689        4.1133074254
 H         -3.4927810490        1.6503285409        3.4550283264
 H         -2.5032970402        1.4416035769        4.5998901963
 O          3.2418096629        3.1174831602       -0.9767669715
 H          4.1794485363        3.2998500531       -1.0921535514
 H          3.0021677753        3.5042746962       -0.1007907271
 O          5.3995277954        2.5946060119        2.1536535118
 H          6.3001499172        2.3176330657        2.3696931232
 H          4.8340788531        1.9396460171        2.6042168797
 O          4.1100703059       -2.5726536479       -3.7274306737
 H          3.6698246724       -3.2955753682       -3.2275065107
 H          3.9967780367       -2.7981349993       -4.6517351428
 O         -4.5490603499        2.4828873108       -1.2494665505
 H         -4.0367481033        3.1685839540       -1.7075072567
 H         -5.1099430829        2.0276573759       -1.9169369815
 O          0.5648058926        0.8247159098       -0.2441200637
 H          1.5093142784        0.7027022009       -0.0961486852
 H          0.1490573171        0.6295432037        0.6082772242
 O         -0.4804344967       -0.2552909693       -2.4314146141
 H         -1.4425429637       -0.1961114066       -2.4214795105
 H         -0.1276724052        0.1659970639       -1.6069453991
 O         -1.9486655110       -2.3239754594       -4.8667693929
 H         -1.0776161669       -2.3253111685       -4.4655645753
 H         -2.4200875658       -1.6065280774       -4.4151694922
