  84
       -142.51051711
 O         -1.6385624047       -2.4559869057       -0.1612907341
 H         -1.0182902428       -3.2062775427       -0.1574321100
 H         -1.4392196813       -1.9377352915        0.6482210876
 O          3.5941153777       -2.0824287772       -2.3606712822
 H          3.6698118320       -1.1326709320       -2.5503376723
 H          4.1167211170       -2.2265034482       -1.5521836118
 O          3.7543026226        0.6805221770       -2.7446451162
 H          4.1550380363        0.9126065522       -3.5831001922
 H          2.7848167110        0.8339577187       -2.8567539956
 O          2.3439790962        3.3325571368        2.3263246378
 H          1.8514789576        3.5797703910        1.5268763194
 H          1.7221877265        2.7966341266        2.8416794949
 O         -3.6508056251       -0.7507572015       -0.6350950971
 H         -4.2429665665       -0.6076532737        0.1486932027
 H         -3.1203770681       -1.5442520435       -0.4738941629
 O         -5.2721605305        0.1430396888       -2.5665462124
 H         -4.7075294290       -0.3019915275       -1.8973903037
 H         -6.0849279113       -0.3600503667       -2.6154076399
 O         -5.1853348571        0.0912358698        1.3031580925
 H         -5.3596573891        0.9153135308        0.8056107829
 H         -4.5425565043        0.3234149980        1.9953100547
 O          0.5934871892        1.3295348091        3.2039782721
 H          1.1905823645        0.7045604173        2.7341336864
 H          0.2961178635        0.8632633440        3.9876499396
 O         -0.5805855561        2.8794224590       -2.1746802245
 H         -1.0508902849        3.1398129847       -2.9682975419
 H         -1.2218324658        2.3824306081       -1.6247418503
 O          0.5407786216        3.5242069140        0.2852105669
 H         -0.2951264032        3.5093203838        0.7677477233
 H          0.3154891175        3.5315105294       -0.6547936985
 O          1.1611241186        0.9764514922       -3.1597371964
 H          0.6616138702        1.7370716140       -2.8178330583
 H          0.6150561722        0.2019801953       -2.9645770434
 O          1.1140592980       -3.1173183151       -2.4194029247
 H          0.5407978386       -2.3442147491       -2.5355525167
 H          2.0385476585       -2.7915663172       -2.4486524312
 O         -1.0892505970       -0.8053430295        1.8720048474
 H         -0.4601671987       -0.2762196422        1.2959959266
 H         -0.5502165803       -1.1772172545        2.6030908775
 O          1.1383025607       -4.0431018734        2.3658684409
 H          0.8155164707       -4.1467416362        1.4519293325
 H          2.0705303294       -4.2641553589        2.3432711271
 O         -3.0827072721        0.4834229698        3.0495228017
 H         -2.3750008179       -0.0351350338        2.5873849529
 H         -3.2506209351        0.0323534432        3.8768457026
 O          5.4465495704        0.5545852617       -0.5169881218
 H          5.0177554773        1.0033766351        0.2281354509
 H          4.8768968308        0.6939886138       -1.2901543738
 O         -2.3710249288        1.5997311137       -0.5938080768
 H         -2.0542005534        1.8508667676        0.2993844112
 H         -2.7040112084        0.6752750706       -0.5259295113
 O         -0.6746944048       -0.9410230611       -2.2342682056
 H         -1.0915040825       -1.4767095084       -1.5276658039
 H         -1.4005131259       -0.5223471567       -2.7310650546
 O          0.3502368915       -4.3163213734       -0.2528351416
 H          0.7258815032       -3.8566257465       -1.0618693883
 H          0.1426224419       -5.2063588676       -0.5388009742
 O         -2.6197982965        0.6940840503       -3.3308321646
 H         -3.5269026844        0.4225066007       -3.5112590122
 H         -2.6704749497        1.1699645046       -2.4938722927
 O         -1.5355993279        2.4090318924        1.8402050039
 H         -2.2848907771        2.0851642548        2.3580230641
 H         -0.7504693918        2.0219391718        2.2737429673
 O          0.5411251301       -1.7638668790        3.7848228600
 H          0.6203482457       -2.6829218473        3.4744568486
 H          1.3848098350       -1.3556657799        3.5463745664
 O          4.2474630264        1.6200268198        1.7828995447
 H          4.9635605335        1.8065782510        2.3909721208
 H          3.5698668726        2.3368265365        1.9267859112
 O         -5.1375651706        2.1251991048       -0.5235614831
 H         -4.1703395555        2.1973694749       -0.5410945316
 H         -5.3692659174        1.6300553077       -1.3235682016
 O          5.2103473474       -2.0741076087       -0.1299984749
 H          6.0560956131       -2.4910663331       -0.2972778438
 H          5.3625215522       -1.1022733714       -0.2256337727
 O          2.3060374176       -0.2619379804        2.0022967782
 H          1.9256243420       -0.2700744565        1.1136772943
 H          3.1042755048        0.2962979261        1.9454106598
 O          0.4441778765        0.5502537848        0.0836127740
 H          0.4868588440        1.5183529599        0.0984962136
 H          0.1238007257        0.2629416761       -0.7841517782
 O          3.8498826479       -3.9479524494        1.1563426488
 H          3.7562020699       -4.2505768148        0.2498836350
 H          4.2875242713       -3.0885682776        1.0662416554
