  249
       -422.61790817
 O          6.5613253345       -3.8802219289       -0.8335479038
 H          6.9684759394       -4.7453002023       -0.8110840221
 H          6.1999693896       -3.7120011336        0.0741818033
 O         -2.3749441851       -4.8889040905        3.3356915433
 H         -1.4491482679       -4.7207920650        3.0960066013
 H         -2.8580766790       -4.9353170561        2.5030682150
 O          2.1657953312       -2.7370929689        3.8426444161
 H          2.9999491153       -2.2970959786        4.0600847261
 H          1.5284496434       -2.0043823140        3.8136816322
 O         -1.2532386608        3.0458054782        2.5271047933
 H         -0.4894522321        3.5928335179        2.2851292946
 H         -2.0041917342        3.6757300668        2.5179513204
 O          5.4505948732       -3.3074322047        1.5049994901
 H          4.6267232114       -2.8674779083        1.1960592077
 H          5.9606092627       -2.6255442501        1.9710533597
 O          3.9476882329       -4.9472139550        3.1301633065
 H          4.6423930444       -4.4257882621        2.6905428099
 H          3.3598588407       -4.3114658001        3.5567288924
 O         -5.7665528838        0.6201188619       -1.3049633880
 H         -6.1792326839        0.0793311099       -2.0132004038
 H         -6.5004910419        0.9834057329       -0.7788299761
 O         -2.6103564625       -3.9359491336       -2.3904179406
 H         -3.2887191298       -4.5878050699       -2.1702181780
 H         -1.7642932405       -4.2197427362       -2.0082373942
 O         -1.6092273235       -1.5564381928        2.5914194795
 H         -2.0858620145       -0.6979749671        2.5423841926
 H         -1.7410152520       -1.9545945830        1.7080102119
 O          2.8174544702        0.8925722304        2.8759049663
 H          2.8767349776        1.1664389719        1.9402004252
 H          2.0006363994        0.3563386328        2.9769855207
 O          2.6677367478       -4.8574878023       -4.5752245242
 H          1.8254606109       -4.3669720838       -4.6005214701
 H          2.6946324447       -5.2473899964       -3.6929352412
 O         -4.5016131220       -0.9934156661       -4.6453190092
 H         -4.1386263685       -0.1031986902       -4.7842119125
 H         -4.4018508616       -1.1737894852       -3.6845220824
 O          6.9421101125        4.7175425356        1.3268620945
 H          6.4318269313        4.5334930575        2.1181675983
 H          7.4455967046        3.9033823881        1.1402011513
 O          2.9641980412        4.8511722055        0.7495349879
 H          3.2766944823        4.9752536841        1.6845404406
 H          3.0500892409        3.8949351436        0.5816751688
 O         -6.0895698579       -1.1945985090        2.5862031524
 H         -5.6294248932       -1.1876439506        3.4485437776
 H         -5.4320381587       -0.8923270263        1.9120415234
 O         -2.8118586695        0.7915145122        2.4561526680
 H         -2.2441100981        1.5501052998        2.2531120589
 H         -3.1339612929        0.9443169624        3.3735995342
 O         -6.2366862519       -2.8848822796       -1.0361143838
 H         -5.4868616540       -2.2991695400       -1.2667515858
 H         -6.1040127507       -3.1573408965       -0.0945548359
 O         -2.5647876790        0.5311838795       -2.0431401354
 H         -2.4987560899        1.1644854322       -1.3092971810
 H         -1.7212334160        0.0375956412       -2.0624273040
 O          0.1806859232        1.1829069287       -2.9364607378
 H          1.0980603093        1.3795449310       -3.1913679015
 H         -0.1960551078        0.6890988501       -3.6904431263
 O          1.9990055727       -0.7117973933       -4.8167619282
 H          1.0854961137       -0.6063646574       -5.1137762248
 H          2.3284406491        0.1742659247       -4.6133123273
 O          4.0000865874       -2.5613976686       -4.5345293675
 H          3.6526505699       -3.4717082415       -4.6863047707
 H          3.2676123644       -1.9786516217       -4.7948795189
 O          0.3425546067       -2.4146763358        0.4768439404
 H          1.3156461302       -2.3090339304        0.4764678922
 H         -0.0431341767       -1.5133919376        0.5221551791
 O         -0.9068274055       -1.5081631832       -2.0267120924
 H         -1.3717821342       -1.8819768226       -1.2527383796
 H         -1.2581327619       -1.9217120779       -2.8245439306
 O          2.1174112830        4.3961602303       -2.0669154257
 H          2.9611512242        3.9127942383       -1.9949868703
 H          2.1758659152        5.0826237602       -1.3984890657
 O         -1.5416621045        4.7409840611       -0.3555869567
 H         -0.8128913392        4.9240779126        0.2648587451
 H         -1.1242360423        4.4009500258       -1.1817248132
 O         -3.3630625447       -4.7609086723        0.6473140460
 H         -3.9625607011       -5.0387412074       -0.0656994772
 H         -2.5335465986       -5.2905003161        0.5237529603
 O          5.1025484198        2.6506751765        2.9823680510
 H          5.3062503738        2.5676953645        2.0113883209
 H          4.3873889814        2.0247632683        3.1356568810
 O          4.5608803259        3.2032178336       -1.8245805520
 H          5.2096675596        2.8711396243       -2.4634178236
 H          4.9133936868        4.0773195543       -1.4971830057
 O          1.8064848366       -1.6419589260       -2.1951967472
 H          1.8688758175       -1.5840815200       -3.1624372661
 H          0.8545581537       -1.5608881159       -2.0110740778
 O          7.1828313926       -1.2914697203       -1.5084382731
 H          6.6240741208       -1.1130386849       -2.2925956062
 H          7.1640910094       -2.2493846996       -1.3607417242
 O         -0.7671117489       -0.1147814779       -5.1037291635
 H         -1.1521988217       -0.9959721553       -4.9946472224
 H         -1.5365486397        0.4859657679       -5.1666633728
 O         -4.3603171876       -0.5552766685        0.6798900029
 H         -3.8764324571        0.1289820100        1.1778563187
 H         -4.8239380362       -0.0955268071       -0.0526057915
 O          4.1763115790       -3.0257286840       -1.8956724125
 H          5.0610251507       -3.3704951107       -1.7016962764
 H          4.1308369932       -2.8144965909       -2.8526825410
 O          3.0291437246       -2.5709242522        0.5031241671
 H          3.3069485060       -2.5281943711       -0.4294102269
 H          2.8275512856       -3.5210291484        0.6690122956
 O          6.3782573124        1.9651500103       -3.4786222097
 H          6.8012551722        2.1834685366       -4.3084278572
 H          6.0433267990        1.0461212049       -3.5570298697
 O          4.2096176170       -0.8804061613        4.3588301237
 H          4.3061505323       -0.5031557886        5.2333538837
 H          3.7444869368       -0.2175966641        3.8068198761
 O         -2.9827172599        1.3386961604       -4.5842602093
 H         -3.0380205202        2.3083281432       -4.6255250589
 H         -2.8630810797        1.1313188404       -3.6329011920
 O         -7.9004922491        1.3470469669        0.2161146799
 H         -8.0428558336        0.3654850637        0.2836779244
 H         -8.6808476020        1.7098925218       -0.2020062958
 O         -2.4069274222       -2.3089849439        0.1279032745
 H         -3.1535860227       -1.6850495715        0.2450702218
 H         -2.7652648285       -3.2057617422        0.2826094850
 O         -5.8357958084       -3.6470612079        1.4621278231
 H         -4.9358714636       -3.9794224532        1.5495415244
 H         -5.9213294574       -2.8550814773        2.0255437314
 O         -4.1065582865       -1.6260996912       -2.0710881758
 H         -3.5934401751       -0.8031810383       -1.9101409492
 H         -3.4861977764       -2.3739395971       -2.0718368547
 O         -3.1107317557        4.8973642225        2.0910283662
 H         -4.0827702988        4.8941346583        2.1373275653
 H         -2.8758089711        5.1300616573        1.1869842117
 O          0.2069027026       -4.2629302641        2.3738187159
 H          0.7711967754       -3.9144882018        3.0764612150
 H          0.1095714595       -3.5176191071        1.7330493361
 O         -7.4518489103        1.1898142755        2.9697601093
 H         -7.6544252276        1.4220957563        2.0500661999
 H         -7.0571974825        0.3007875855        2.9226553252
 O          5.2742254953        5.4221027559       -0.6789608172
 H          5.9794341929        5.2325935691       -0.0245192174
 H          4.4626078757        5.5028681416       -0.1523421299
 O          2.4051185305       -5.1390609213        0.9981342849
 H          3.0390581540       -5.2992941767        1.7329700204
 H          1.5488033903       -5.0049085678        1.4432989333
 O          6.3758274563       -1.0735122026        2.7141048051
 H          5.6793418916       -1.0740557699        3.3924019776
 H          6.9264440950       -0.2727223807        2.9052207708
 O         -5.8484031870        4.9884893723        1.9902524118
 H         -5.8291887082        4.9246578665        0.9975166042
 H         -6.2496732098        5.8342633502        2.1873292138
 O         -4.4634125679        2.8499891185       -1.9040929398
 H         -3.7158124112        2.7233880840       -1.2937691395
 H         -4.9590139090        2.0066776654       -1.8582228810
 O         -1.0369159092       -5.9215468153        0.3436614691
 H         -0.6073374941       -5.3983191865       -0.3655136132
 H         -0.5647318024       -5.7106117104        1.1560027869
 O         -3.5234507370        6.0974932506       -1.7914812741
 H         -2.7819040564        5.7450891542       -1.2763013676
 H         -3.4505624882        5.6911601170       -2.6658068783
 O         -0.5042781505        3.7033268483       -2.5607616887
 H         -0.3774896711        2.7289909473       -2.6640357941
 H          0.3939465030        4.0691809252       -2.5750768888
 O         -4.9428407277       -5.1705585617       -1.5699919209
 H         -5.5033696638       -4.3597281991       -1.4883425763
 H         -5.5398286902       -5.9077229079       -1.6914824965
 O         -5.4820151921        2.7742173449        3.7283359905
 H         -5.7142692653        3.6687867507        3.4534258927
 H         -6.2889177470        2.2206049926        3.5901902627
 O         -2.9729153556        4.0267006838       -3.8481874747
 H         -2.0841397846        3.9780074662       -3.4618529844
 H         -3.5849381403        3.6464415469       -3.1909941111
 O         -5.6574598984        4.8859791554       -0.6226366222
 H         -5.3837173383        4.0778358277       -1.1025177979
 H         -5.0372050780        5.5546769387       -0.9706605749
 O          2.4653320038       -5.0881087472       -1.7310328873
 H          3.0416305354       -4.2938009748       -1.8048350629
 H          2.5543761749       -5.3895616029       -0.8143440002
 O          5.6629472688        2.1963969435        0.4838558535
 H          5.2432528032        2.5646895928       -0.3096013884
 H          5.6226167926        1.2249537950        0.3945511792
 O          8.1612576066        1.3180285986       -1.3863480304
 H          7.5405416629        1.6824049395       -2.0346981014
 H          7.9840208124        0.3679685453       -1.3494963689
 O          0.4374020078       -3.3541910956       -4.1620951791
 H          0.2209176817       -3.6184932275       -3.2535386470
 H         -0.3901369472       -3.1931700902       -4.6225197139
 O         -2.2034481036       -2.4380309957       -4.5850987823
 H         -3.0366336844       -1.9908087972       -4.8397200109
 H         -2.4720160649       -3.1430860930       -3.9725262280
 O         -2.5273219560        2.2861227680       -0.0290000201
 H         -3.3288930570        2.2731890524        0.5370707875
 H         -2.1473988557        3.1869690336        0.0100022801
 O          5.4069777248       -0.5235536915       -3.3857106384
 H          5.0458129263       -1.2094813079       -3.9682055388
 H          4.6910149883       -0.3025952204       -2.7464710733
 O         -0.7441947322        1.5749773120        4.7328768901
 H         -1.6046337888        1.3810093473        5.1239021901
 H         -0.9463497954        2.1424777201        3.9583349714
 O          8.5354029999        2.4854627045        0.9739304693
 H          8.2932138181        2.0554188393        0.1205087535
 H          9.4581179169        2.7281913600        0.8986023075
 O          0.6003455636       -0.4585611794        3.5503361030
 H          0.1724257064        0.2022592309        4.1325344193
 H         -0.1473523812       -0.9601243807        3.1540353350
 O         -2.7054771476       -2.6484576092        4.7846222478
 H         -2.2149240898       -2.2008082534        4.0669868098
 H         -2.7386849476       -3.5757551008        4.4836174559
 O          3.5804916584        0.1662943727       -1.5247357234
 H          2.8940160186       -0.5309049307       -1.7013008634
 H          4.1371154131       -0.1693409042       -0.7976407667
 O          1.5370978955        3.1510721343        3.8827552066
 H          0.8799219339        2.8472022612        4.5157052211
 H          2.0153612033        2.3567404346        3.5926089609
 O         -3.5913458300        1.2241196451        4.9479883259
 H         -4.0775089062        0.3914211625        5.0923579933
 H         -4.2582206615        1.8942238797        4.7252274446
 O          0.4281106815        5.0154018535        1.4922732773
 H          0.4066601579        5.6994879960        2.1617847298
 H          1.3610705245        4.9739391037        1.1657588572
 O          7.4901242295        1.2561086143        3.2024599726
 H          7.9425977282        1.6249907241        2.4238368609
 H          6.7026863712        1.8152916405        3.3137196277
 O         -4.8336335397       -1.2093688448        4.9752216464
 H         -5.3283219276       -1.5132573375        5.7354983343
 H         -4.0187135563       -1.7965453564        4.9159746183
 O         -6.9175635472       -0.9059612821       -3.1828227747
 H         -6.9389946695       -1.7758938411       -2.7720380118
 H         -6.2930823850       -0.9586869567       -3.9238876558
 O         -4.8836094788        2.2104239218        1.1574125671
 H         -4.9578558644        2.3841102615        2.1163141184
 H         -5.6229996125        2.6540768990        0.7384557063
 O         -8.0185777357       -1.2642362233        0.4465495279
 H         -7.5444803281       -1.7960877834       -0.2136168819
 H         -7.5740264311       -1.4251736974        1.2884581337
 O          3.5865794777        4.8758429075        3.2892804845
 H          2.7855368463        4.4557407909        3.6431756040
 H          4.2613828547        4.1699464040        3.3031926378
 O         -0.0121204458       -4.2274813615       -1.4870695952
 H          0.0956165825       -3.4911053765       -0.8439918800
 H          0.8997898116       -4.5846751919       -1.6321225642
 O          2.7759387255        1.7029715981       -3.6472028047
 H          2.9553459860        2.6449358443       -3.6667969558
 H          3.2198063247        1.3492501331       -2.8578882266
 O          5.4125473769       -0.4628724625        0.3154741827
 H          6.1202996549       -0.7674245027       -0.2913737194
 H          5.7230001132       -0.6882613443        1.2197153443
 O          0.0410387483        0.7390478875       -0.1357621553
 H         -0.7136586497        1.2857037781        0.1142514935
 H          0.1211500313        0.8004470488       -1.1022822475
 O          2.5385120567        1.8742887796        0.3930904632
 H          3.0277399535        1.4396556642       -0.3255078486
 H          1.6215057624        1.5620288607        0.2924316724
 O          2.7368545601        0.4982061310        6.1529303799
 H          1.9848336973        0.0107259126        5.8068191282
 H          2.5077795967        1.4280038559        6.1365538045
