  129
       -218.85045641
 O         -0.4063432275        0.9887478393        3.7700025689
 H          0.4659988471        1.1331910414        4.1799372266
 H         -0.4830932900        1.7188127300        3.1271967397
 O         -0.2261977890       -1.2478384697        2.3784936108
 H         -0.2528759181       -0.4509685647        2.9576226616
 H         -1.0446415320       -1.7315043655        2.5772226527
 O          4.5077898831        0.4636871997       -1.9766572837
 H          4.6859651088        1.4003610357       -1.7029637586
 H          4.0947135215        0.0266085251       -1.2162598010
 O          6.6472736512       -2.5863424942       -0.3031581537
 H          6.8611528105       -1.7871844222       -0.8188217719
 H          6.6771480210       -2.3286291069        0.6209704564
 O          0.8459202671        4.2995299574        0.2746916545
 H          1.4291255203        3.9019600314       -0.4007324438
 H          0.0773352945        4.5859937554       -0.2411717732
 O         -1.9753508178        0.7291369502       -4.3515207389
 H         -1.6412980284       -0.0965376043       -3.9277327959
 H         -2.2422639823        0.4967331978       -5.2408411881
 O          1.3023870739       -1.0504484654       -2.1133208337
 H          1.6985913950       -1.9163157213       -1.8729041281
 H          0.4563011233       -1.2581845559       -2.5524574759
 O          1.0398763846       -3.4164805070        1.3704101434
 H          0.2590364598       -3.9703338332        1.2585489159
 H          0.7051330803       -2.5978188752        1.7805357006
 O          2.7215448091        3.6125727586        2.4319040465
 H          2.2322881332        4.0612745327        1.7339570828
 H          3.5998113409        3.4028062105        2.0750452649
 O          2.1899529479        1.2101266050       -3.2223164899
 H          1.7798303633        0.3919570384       -2.8782925066
 H          3.1404448781        1.0131609211       -3.1648529226
 O         -5.3973423659        1.6394394636       -0.7674340786
 H         -6.0952771158        1.4540264946       -1.3981828950
 H         -4.5716928148        1.2450782714       -1.1560708052
 O          6.1129682526        0.4367121055        1.0017631811
 H          5.2882294232       -0.0421358005        0.8037410711
 H          6.6486183596        0.3740277380        0.1966387867
 O         -1.2810848275        1.7158834349       -0.3931942617
 H         -1.1700302342        2.6088332839       -0.7730062297
 H         -1.9624631736        1.2661498662       -0.9230862083
 O         -1.1911960273        4.1325539694       -1.5546248820
 H         -2.1500225710        4.2313437200       -1.5789289947
 H         -0.8935742606        3.7611120664       -2.4108922823
 O         -0.5260709270        3.2171708649        2.2463454466
 H          0.0112571652        3.5342599207        1.4829213320
 H         -0.4776808784        3.9090115232        2.9079794114
 O         -3.1630231458        1.3744924815        4.1457001893
 H         -2.2115593430        1.2104910428        4.2353291050
 H         -3.2672991947        1.9038583138        3.3400077320
 O         -3.0748059210       -0.1671938526        0.9922562249
 H         -3.0312012027        0.8101036821        1.0338115387
 H         -3.3470162454       -0.4455689700        1.8874602767
 O         -3.9499569410        3.9590612507       -0.6765247896
 H         -4.5717282121        3.2136990573       -0.7841564006
 H         -4.4748741396        4.7402828314       -0.4987633479
 O         -0.3458428401       -4.6899374736       -1.7010826316
 H          0.5356789977       -4.2832387926       -1.7051603182
 H         -0.6250810109       -4.7226487438       -0.7808713647
 O          3.7865047171       -3.0707786800        1.5714551052
 H          4.1376987944       -3.6523162452        0.8777585773
 H          2.8781955616       -3.3604799457        1.7318651976
 O         -1.2844449450       -1.5935684919       -0.4097892495
 H         -1.3914219847       -2.4941972283       -0.0610873690
 H         -1.9126497251       -1.0308314078        0.0774794303
 O          2.0402362557       -3.3965284304       -1.1705142879
 H          1.7555557547       -3.3522040279       -0.2361870589
 H          2.9601620312       -3.7067341829       -1.1652312387
 O         -4.2885597973       -0.8371438529        3.3031841626
 H         -3.9467469129       -0.0440117950        3.7884577353
 H         -5.0990579298       -0.5482442860        2.8571679331
 O         -2.4242038688       -2.7500419460        3.1569768650
 H         -2.3147404793       -3.1361435182        4.0268802379
 H         -3.1903061125       -2.1431299483        3.2198637472
 O         -2.7003741825       -3.8160412632       -2.6707157437
 H         -1.8180933212       -4.1950579413       -2.4853464366
 H         -3.2653129923       -4.1812479358       -1.9760048630
 O         -1.6873076117       -4.0374683964        0.8290783844
 H         -2.5212121324       -4.3023466954        0.4017951909
 H         -1.9559922012       -3.6807989737        1.6921887219
 O          4.6263968004       -4.2344554521       -0.7749295673
 H          4.9847999719       -5.0765754572       -1.0570644629
 H          5.3878829039       -3.6109540090       -0.7261189717
 O          2.2466839835        3.4543207756       -1.8448120708
 H          2.1657010277        2.5905312462       -2.3234000879
 H          1.9897322990        4.1236769415       -2.4816776107
 O          5.2376256970        2.8868195639        1.4632164292
 H          5.5882931729        1.9610982611        1.3770697173
 H          5.9468464335        3.4031723656        1.8485019588
 O          4.8725001798        2.9653327348       -1.2418992938
 H          5.0161754477        3.0520988912       -0.2831357658
 H          4.0063611553        3.3590118261       -1.4322529198
 O          7.0317588439       -0.1956401960       -1.5444574709
 H          6.1194781856        0.0035816308       -1.8708055723
 H          7.6417222315        0.0464172220       -2.2410102067
 O         -4.3346553389       -1.5890518318       -2.5773374155
 H         -4.7716292380       -1.7839327277       -1.7333769103
 H         -3.7635652472       -2.3510934986       -2.7662473239
 O         -3.0827550388        2.4898270777        1.5817523267
 H         -3.3737336953        3.0362650401        0.8361386381
 H         -2.1402773072        2.7076108102        1.7008296483
 O         -3.2534981043        0.7027693432       -1.9584123033
 H         -3.5781448334       -0.2131300277       -2.1621041010
 H         -2.9438376733        1.0295179334       -2.8166357133
 O         -1.2066215653       -1.4633519021       -3.0285485095
 H         -1.3584526083       -1.4435164387       -2.0491707908
 H         -1.6053962066       -2.2946934819       -3.3126673400
 O         -0.2353643103        2.7386677311       -3.6629632041
 H          0.6042172770        2.2636335986       -3.6896725422
 H         -0.8946433590        2.1008629087       -3.9825003120
 O          2.1164588822        1.7342113476        4.3027705050
 H          2.6158580443        1.9261993024        5.0961040723
 H          2.3166641191        2.4487861658        3.6679846853
 O         -6.1696254388        0.2886781715        1.5382022211
 H         -5.8013633206        0.8317459442        0.8134005367
 H         -6.8533243983        0.8149269458        1.9534486919
 O         -4.1564908936       -4.3191038030       -0.2886503180
 H         -4.5156375634       -3.4247631746       -0.1075569198
 H         -4.8652199394       -4.9455614351       -0.1415946014
 O         -5.0062845990       -1.7835502583        0.0649404684
 H         -5.7560698292       -1.4257989954        0.5519192002
 H         -4.2589689183       -1.1868312263        0.2976537594
 O          3.4831207610       -0.0970161269        0.5540998210
 H          3.3234091011       -0.9849071986        0.8888487937
 H          2.6318688664        0.3815262133        0.6900968804
 O          0.9518645840        0.7446572578        0.9362941943
 H          0.6031295973       -0.1195945088        1.1877816190
 H          0.2267080538        1.1338116533        0.4230123091
 O          6.0499549786       -1.6534190436        2.7986537470
 H          5.9183617111       -0.7001470993        2.8057861413
 H          5.2242816709       -2.0390768245        2.4753265079
