  192
       -320.55181305
 H         -0.8608587343       -0.5947539329        1.2088711922
 C         -1.0902417527       -0.1419288611        0.2455320741
 H         -1.6142554840       -0.8730916083       -0.3694043137
 C          0.2022672378        0.2685403240       -0.4335445572
 H         -0.0076506543        0.8605523680       -1.3195439158
 H          0.7344556702       -0.6314145029       -0.7134483941
 O         -1.9378278360        0.9739839867        0.4850000819
 H         -2.2376009228        1.2825434240       -0.3956033341
 N          1.0566744079        1.0419800308        0.4801909914
 H          0.6891316588        2.0160388495        0.6083850915
 H          2.0319677201        1.0799453680        0.0909111440
 H          1.0701011415        0.5389075394        1.3950391512
 O          2.9726954109       -1.2408609970        0.7910813857
 H          2.9427378773       -1.1656908659       -0.1808721848
 H          2.6366530295       -2.1412894268        0.9803537761
 O          2.4498167656       -1.2854173068       -1.8741988737
 H          2.3193623662       -0.4161324115       -2.2933773571
 H          2.9321548859       -1.8432534622       -2.5246219253
 O          5.3540494502       -1.7848910742        1.7575700331
 H          5.8181159318       -0.9307723672        1.6835201873
 H          4.4592336898       -1.5796425304        1.3801395268
 O         -7.1796575169        1.1285544013        0.9071652386
 H         -7.1014740893        2.0622909370        1.1754587310
 H         -6.8935719879        0.5947643844        1.6704632915
 O          3.5485088369        1.1854606504       -0.5416011645
 H          3.4601796968        2.1297179057       -0.8096385519
 H          3.8513950783        0.7339807780       -1.3524341218
 O         -7.6135094812       -0.7580665452       -0.9960615776
 H         -8.5048712847       -0.7769139825       -1.3461939863
 H         -7.5602473890        0.0092846606       -0.3958458436
 O          1.3878159169       -0.0505111826       -5.2737259577
 H          0.9227491797        0.6678845308       -5.7308050475
 H          1.5515056669        0.3098432987       -4.3696313398
 O          2.6123546470       -1.4779083689        4.4693188039
 H          3.3726182974       -0.8641768521        4.5642257748
 H          3.0394103682       -2.3022110471        4.1715448259
 O         -6.0007991742       -0.5898077091        2.6930016208
 H         -6.0060320055       -0.8918863267        3.6079950024
 H         -5.0416980352       -0.4653881157        2.4945894702
 O          0.2031035856       -3.1427963606        3.9749643230
 H          0.9496653913       -2.6374908174        4.3093107480
 H          0.2068966289       -3.0508985511        3.0105527566
 O         -1.4468878310       -0.1119982409        4.4587781578
 H         -1.7307036633       -1.0495663601        4.5353458526
 H         -0.7055945780        0.0283826471        5.0939646079
 O         -0.2716662579        2.5822393786       -3.2167287627
 H         -1.0800386231        2.1595521307       -2.8578972553
 H         -0.3336272689        2.5074351666       -4.1864441225
 O         -6.3357930133       -2.4275709785        0.7538893030
 H         -6.9309256124       -1.9983197157        0.1171171997
 H         -6.3448499151       -1.8676651936        1.5580284380
 O         -0.1161200602       -3.1658484549        1.1399832884
 H         -1.0762895371       -3.2286457059        1.2975589899
 H         -0.0072966183       -3.1346890970        0.1726102031
 O         -0.5318874234       -1.8731871827       -5.0449341185
 H          0.2037917371       -1.2354540003       -5.2011532711
 H         -0.1003398980       -2.7285072655       -4.8995872345
 O          1.9647124061        1.1529836104       -2.9838467638
 H          1.1818167098        1.7416510711       -2.9765433401
 H          2.6684554402        1.6636858191       -3.4437709506
 O         -4.3588663508        0.8914991156       -3.9379819218
 H         -4.9409445320        1.5109672673       -4.3779527286
 H         -4.9228062788        0.1212513515       -3.6684779458
 O         -4.7102971880        1.3155474740       -0.1718587755
 H         -5.6656965597        1.2210910522        0.0023334117
 H         -4.3386227399        1.5974191130        0.6851988296
 O          6.0109179195        0.5411927071        0.5573072428
 H          6.4025427632        0.0758721537       -0.1970575409
 H          5.0982474640        0.7708801546        0.2906448552
 O         -3.8247963060       -2.8067315423       -2.2714631155
 H         -3.9299198592       -3.6962589399       -1.9229515396
 H         -3.8812768699       -2.2210766749       -1.4703930390
 O          0.1840883063        3.5862964274        0.6653078774
 H         -0.7644983711        3.7408804437        0.8226529171
 H          0.3967654900        4.0066651992       -0.2173246064
 O         -1.5591399283       -1.3915772986       -2.6955336946
 H         -1.1988524176       -1.5089090278       -3.6117465034
 H         -2.3683287069       -1.9370453317       -2.6624991729
 O         -3.8940485574        1.1953703072        4.7418207271
 H         -2.9750277980        0.9811274956        4.9526478677
 H         -4.3903353072        0.3767993831        4.9028338430
 O         -2.4109065112       -2.6127350196        4.2910333599
 H         -1.5254137899       -3.0084749655        4.4024450407
 H         -2.6378356224       -2.8202490146        3.3626458353
 O          3.3965605464        3.7314194061       -1.2380201192
 H          3.7150543113        3.9626251552       -0.3432689299
 H          4.1910258249        3.6642014607       -1.8104856587
 O          3.4214914967       -3.0606111075       -3.5891537916
 H          2.5865364212       -3.4461916963       -3.9045438543
 H          3.6975507197       -3.6174714131       -2.8321509424
 O         -4.6866731407        4.0315597896       -0.5264900117
 H         -3.8335449781        4.2487846546       -0.1177645830
 H         -4.6192930718        3.0929603934       -0.7702818226
 O         -5.8271411133       -1.1511347749       -3.1818481636
 H         -6.3915798214       -1.0345622769       -2.4045983353
 H         -5.1932643731       -1.8602337220       -2.9742326525
 O          3.5218986732        1.1124582226        2.2878317484
 H          2.7281142480        1.4039593146        2.7832260896
 H          3.2856966672        0.3235669015        1.7759875897
 O          4.1249151766       -3.4914812483        3.4592337201
 H          4.6844965028       -2.8656677896        2.9528281559
 H          4.7016418091       -3.9556223904        4.0659417948
 O          4.1449467998        3.6597444079        1.3497938169
 H          4.0642287914        2.7223649642        1.6007578496
 H          3.4319902222        4.1127517457        1.8298109436
 O          3.9036539481       -4.2605149273       -1.2331714317
 H          3.3127482964       -4.1849973692       -0.4704574348
 H          4.7794666004       -3.9960706689       -0.9154521716
 O          6.3040334000       -3.3226634039       -0.1383060392
 H          5.9585547718       -2.7891408585        0.6287854921
 H          6.9435569174       -3.9423013667        0.2125584880
 O          5.6088290720        2.9375170032       -2.5024508288
 H          6.1442945676        3.1115459183       -1.6993941483
 H          5.4847281408        1.9700238773       -2.5285848907
 O          4.0547394395       -0.7262767772       -4.9753573384
 H          4.0009925910       -1.6516232933       -4.6948778361
 H          3.1600469927       -0.5006554475       -5.2816464157
 O          6.9676263266       -1.1065845376       -1.5161163125
 H          7.8422117103       -1.1784434851       -1.8983060101
 H          6.7416564446       -1.9775286761       -1.1280949386
 O          1.8358460789        4.6571182025        2.4603589084
 H          1.7256449869        5.6074414339        2.4608461680
 H          1.2029217857        4.2942105525        1.7929290046
 O         -0.4240422264        1.9396410308       -5.8567624687
 H         -1.1911763964        1.3099162876       -5.8610205324
 H         -0.5352147136        2.5142084963       -6.6135881221
 O         -2.7853458764       -3.0648921598        1.6221970629
 H         -3.3378254893       -3.6371794035        1.0632706205
 H         -3.0792539636       -2.1550474829        1.4378174011
 O          0.3167803721       -2.9340257828       -1.5805712034
 H          1.1359047368       -2.3991538331       -1.6357333164
 H         -0.4014138453       -2.3556840658       -1.9232363565
 O         -6.3884547620        3.6874349510        1.4656699244
 H         -6.9462149832        4.4499447987        1.6170555466
 H         -5.8225923893        3.9016417846        0.6742117204
 O         -4.1207122978        2.3378690969        2.3121908841
 H         -4.0409106461        1.9479802852        3.2093254246
 H         -4.9480385882        2.8410232224        2.3045825763
 O         -2.3892602494        0.1952153487       -5.7705175298
 H         -1.9926124001       -0.6700686054       -5.6113444261
 H         -3.0769272232        0.3426515965       -5.0975267286
 O          1.4806497222        2.1971424720        3.6597155816
 H          1.7471785164        3.1223639157        3.5854562566
 H          0.5613091579        2.1817850667        3.3077547985
 O          0.8551327377       -4.0488656568       -3.9533159548
 H          0.7454938595       -4.9975938023       -4.0109887502
 H          0.6252469664       -3.7864787429       -3.0298396300
 O          4.9069298645        0.2803396092       -2.6582121456
 H          4.6098325606       -0.0548450967       -3.5327145647
 H          5.6355632177       -0.2896145665       -2.3714357015
 O          4.7712568151        0.0876826226        4.3989279036
 H          4.4955162392        0.5340972851        3.5666398649
 H          5.1151236751        0.7653246297        4.9796331944
 O          0.8260447479        4.5540299699       -1.6409664387
 H          0.4206396597        3.9777764765       -2.3093154262
 H          1.7814403175        4.3684249371       -1.6572222350
 O          3.7418886267        2.4073007821       -4.5196846101
 H          4.4410702185        2.8482159973       -4.0190409081
 H          4.1651734574        1.7241571616       -5.0462343748
 O         -4.7842885548       -1.4236485040        5.1025054112
 H         -3.9831352136       -1.9088161670        4.8328344374
 H         -5.0342718537       -1.7691738300        5.9597967754
 O         -3.3899525516       -0.4335775132        2.2934258513
 H         -2.9026591993       -0.2682895034        3.1053366407
 H         -3.0193086823        0.1551571726        1.6132013615
 O         -1.0559091109        2.1160579524        2.8432154295
 H         -1.3383491072        1.8188454687        1.9634775976
 H         -1.3643417776        1.4526965757        3.4710055055
 O         -4.5901092525       -4.4234506736        0.0327405928
 H         -5.3061287840       -3.8067709409        0.2723712589
 H         -4.8820944141       -5.2974265570        0.2924601532
 O          2.4965372761       -3.8374054870        1.2025709480
 H          1.5327007188       -3.8608315348        1.3168997483
 H          2.9096066364       -3.9895445231        2.0627729918
 O         -2.3189352164        1.1638331720       -2.2003642447
 H         -2.0283786411        0.2433774447       -2.3775488650
 H         -3.1429687885        1.2545644560       -2.7069886785
 O          0.8081065410       -0.4668919217        2.7119928974
 H          0.0593090533       -0.3157837584        3.3044577283
 H          1.5383901404       -0.8030824319        3.2622508663
 O          6.5896566019        3.1736184876       -0.0064663079
 H          6.5903194018        2.2538492323        0.3118416566
 H          5.9275000927        3.6221321696        0.5336767395
 O          0.8366578068        0.3858153975        5.6767982324
 H          1.4674864920       -0.3342005993        5.5525436767
 H          1.1584077615        1.1216186499        5.1269230782
 O         -4.0603192726       -1.2702315012       -0.1961983172
 H         -4.8759977047       -1.6558145809        0.1732648503
 H         -4.2396321721       -0.3170808821       -0.3303193061
 O         -2.4661485918        4.1316832029        1.1739639527
 H         -2.4102201858        4.8670351009        1.7850837086
 H         -2.9244466817        3.4089466185        1.6577771270
