  251
       -422.18471117
 H         -0.0140104904       -0.4566202098        0.9999252816
 C         -0.3618786745       -0.1510786973        1.9894096687
 H         -1.1696880889       -0.8128441973        2.3022578821
 C         -0.8657118752        1.2943123764        1.9251610813
 H         -0.0505032365        1.9366200870        1.5917606531
 H         -1.1789020785        1.6200490982        2.9177524440
 N         -1.9828220686        1.4652665304        1.0136447970
 H         -1.8546570958        0.9362234815        0.1567185564
 H         -2.8466247422        1.1651800916        1.4459088970
 O          0.6888403537       -0.3094259872        2.9353103027
 H          1.5289386994        0.0634024624        2.5684053395
 O         -3.0410324430       -1.7690564182        2.7397319995
 H         -2.6870217503       -2.1933950531        3.5534855201
 H         -3.5291458700       -2.4906813434        2.3003191066
 O         -4.4470875497       -3.8424738937        1.7330610124
 H         -4.4976775429       -4.0082085857        0.7582622716
 H         -4.1757630384       -4.6689163136        2.1333862290
 O         -1.7575254894       -3.5171489986       -3.4716954485
 H         -2.5925751942       -3.1646161339       -3.1089688930
 H         -1.4873768483       -2.8511148499       -4.1214892154
 O         -1.9368639318        1.0842270940        5.8624413119
 H         -2.6803505292        0.8168235726        5.2540207404
 H         -2.3312283567        1.2148237587        6.7246877808
 O          3.0324059610       -0.4340569572        4.4175283820
 H          3.5821708545       -0.7546958564        3.6872456982
 H          3.3846425332        0.4429979639        4.6583169776
 O         -6.4280682106       -2.4489468466        3.0894180846
 H         -7.1889741838       -2.6710342312        2.5300036568
 H         -5.6837963513       -2.8842359680        2.6391377914
 O         -1.7127276951       -5.1942248527       -1.1502936849
 H         -0.8919983018       -5.5745195976       -0.8156897825
 H         -1.5375885389       -4.8558816603       -2.0406195036
 O         -8.2109971917       -0.1846188005        0.1701383217
 H         -8.3724154658       -1.1315587774        0.2641507644
 H         -7.5745345907       -0.0809979352       -0.5703234374
 O         -4.4747455400       -0.2192438810        1.0357487901
 H         -3.8620804042       -0.7561322612        1.5531437325
 H         -5.2436612728        0.0048633516        1.6163099972
 O          2.7622124447       -1.5470410821        0.2270438336
 H          1.9218308920       -2.0442963362        0.1712221993
 H          3.4444833468       -2.2379978654        0.3185270891
 O          6.2784068859        0.3195994022        4.2486101708
 H          5.7895645249        0.5561018491        5.0415224992
 H          6.1746087790        1.0758725826        3.6465360028
 O          2.6293297019        0.3734228743       -4.6923523497
 H          2.5448178424       -0.0758304313       -3.8307488682
 H          3.3088601961        1.0508627473       -4.5391150320
 O          4.9506468867       -4.5864542258       -2.0145173057
 H          4.6433198004       -4.3573868738       -1.1034115968
 H          5.3247686320       -5.4653037902       -1.9783253092
 O         -3.8750634151        0.3494213411        4.2707512657
 H         -3.5654921734       -0.3278281812        3.6404416739
 H         -4.0813451586        1.1473864711        3.7421530003
 O          4.2706836503        3.6924749535        0.3485993689
 H          4.8367918297        3.3625280885        1.0615169373
 H          4.1451484338        2.9300139591       -0.2664938255
 O         -0.9208604424        3.4867379503        4.8999515037
 H         -1.2854052842        2.6636955894        5.2669867971
 H         -0.0137508285        3.2697754425        4.6178766488
 O         -1.0725482324       -1.2014171411       -4.7731908298
 H         -1.8330823700       -0.6034755206       -4.5802754171
 H         -0.5323639361       -0.7310916055       -5.4293011466
 O          0.0623300958       -0.5778611644       -2.4627865725
 H          0.9936087375       -0.8991987684       -2.4590202338
 H         -0.3248886424       -0.8924751523       -3.3113519257
 O          1.8488733311        3.2610989119        1.3467127413
 H          1.2315522690        3.5686956568        0.6682852164
 H          2.7278138047        3.5920538004        1.0619624226
 O         -2.1879334889        3.9905358728        0.3630073664
 H         -2.2023495034        4.4336465757        1.2208907968
 H         -2.2097184142        3.0062832972        0.5874627317
 O         -2.2518207480        2.0461748331       -2.0087969967
 H         -3.0790782027        2.0784692243       -1.5034891489
 H         -2.1593114509        2.9081870135       -2.4534859304
 O         -2.8796557757        0.5956951213       -4.1038241922
 H         -3.8230741803        0.3691569757       -4.0551044763
 H         -2.6577689054        1.0357673745       -3.2400296847
 O         -5.3945835055       -0.4499550949       -3.8705835873
 H         -5.9963818962       -0.4262996488       -4.6127387337
 H         -5.8721890433       -0.0203116309       -3.1065377582
 O         -1.8592973227        4.3719983239       -3.4823593297
 H         -1.6800262798        3.9347107018       -4.3237508413
 H         -1.0504666080        4.8903346052       -3.2717272778
 O         -1.8372580712       -3.0151838169        0.4514217601
 H         -1.7320894648       -3.3785205107        1.3541026662
 H         -1.9885918739       -3.7866839720       -0.1276622532
 O          2.8056469426       -4.8604296816        2.1888303280
 H          2.1670509383       -4.1395962730        2.3766909089
 H          3.4261875476       -4.7914339176        2.9398047565
 O          3.9952234619        2.0871118675        4.7752329953
 H          4.4519648643        2.3404779499        3.9634914664
 H          3.0935284221        2.4432797808        4.6794158161
 O         -2.4013658743        4.6453013929        3.0604381274
 H         -1.7974145544        4.2211933828        3.7227922735
 H         -2.6832034924        5.4715329707        3.4521972263
 O          2.6491460723       -1.0750908592       -2.4086324432
 H          2.8115709417       -1.1666712830       -1.4459357389
 H          2.9075155133       -1.9242390176       -2.8312467989
 O         -4.1094095352        2.5212771753        2.7442036684
 H         -4.8971307678        2.8437196298        2.2954950338
 H         -3.5156520582        3.2828313735        2.8574121560
 O         -7.4645241894        3.0952853631       -2.6737895360
 H         -7.2367512089        3.8169146786       -2.0461453667
 H         -6.6884854029        3.0583843015       -3.2571833803
 O          0.8140033623       -4.1564927442       -2.6932787384
 H         -0.0262111815       -3.9236080768       -3.1121708573
 H          0.8187396349       -3.7044028324       -1.8264597748
 O          4.6036713905        1.8469370583       -3.6330088380
 H          4.3154385750        1.7190193352       -2.7008668955
 H          5.2963868983        2.5616589943       -3.5950383258
 O          0.3185938134        2.0971108966       -3.1631792851
 H         -0.2525118694        2.2903954098       -3.9292995212
 H          0.1635959073        1.1622735315       -2.9421970916
 O          5.8188158505       -1.9484266679       -1.7465872318
 H          5.5771596777       -2.8479450135       -2.0028814050
 H          5.8342035798       -1.4001218710       -2.5715150868
 O         -4.3769404199       -4.5227810559       -0.8277338709
 H         -3.5705035499       -5.0377834037       -0.9601464827
 H         -4.3077405422       -3.7719005555       -1.4369249665
 O          2.9076075374        0.6956400943        1.7607850442
 H          2.9211631592       -0.0414959972        1.1170349961
 H          2.4525083469        1.4398156282        1.3304583425
 O         -8.7789580751        2.5175850315       -0.0916202742
 H         -8.6566940308        2.7161819374       -1.0269220749
 H         -8.8351413764        1.5533857453       -0.0128560610
 O         -6.6129295481        0.6972280065       -1.8593172462
 H         -7.0809482028        1.4905716507       -2.1984850835
 H         -5.8160400377        1.0842045462       -1.4218311196
 O         -1.2984323331        2.3708077778       -5.3537739264
 H         -0.6956506019        1.8320825419       -5.8868816870
 H         -1.9887864319        1.7547116640       -5.0345077662
 O          0.1470744998        3.5705884359       -0.8548822517
 H         -0.7341013878        3.7662802457       -0.4657580922
 H         -0.0201459293        3.1283620891       -1.7108783930
 O         -4.8693133100        2.8481496125       -3.5461733508
 H         -4.5816677140        3.3293541463       -2.7473916309
 H         -4.3202173690        3.1747456316       -4.2593179840
 O          8.3969083947        0.0713800021       -2.6661686993
 H          7.6279746790       -0.1533087970       -3.2207702650
 H          8.4650243408       -0.6075919389       -1.9865067126
 O          4.2853650804       -1.6654335873       -5.5343196040
 H          3.6319565457       -0.9496877281       -5.4441311570
 H          3.9195470086       -2.4038327807       -5.0234814607
 O          6.3119848038        3.7510944179       -3.2101048533
 H          6.8758003503        3.3879273329       -2.5106182476
 H          5.7182964068        4.4106429995       -2.7858102302
 O         -0.3725372825       -1.1163060023        5.4516435612
 H         -0.8599911319       -0.3209563499        5.7308330160
 H          0.0462666467       -0.8618872908        4.6149497274
 O          0.7013010825       -3.1291106450       -0.1893228690
 H          0.7944040181       -4.0268561514        0.1871789798
 H         -0.2272477209       -2.8821632544        0.0177614447
 O          4.4126518650        5.2015471861       -1.9868317611
 H          3.6398134939        4.8400934822       -2.4475244237
 H          4.3696528720        4.8628398570       -1.0809527264
 O          1.4473560157        2.5300783935        3.9414558812
 H          1.2521488560        1.5888955451        3.8536212348
 H          1.5804112167        2.8731374942        3.0362181322
 O         -7.9074174447       -2.9611500988        0.8090857809
 H         -8.1513514641       -3.8082980360        0.4382271463
 H         -7.1105075541       -2.6620176153        0.3095464520
 O          5.0145124431       -1.4319254742        2.7124514920
 H          5.5642596165       -0.8297833820        3.2665062279
 H          4.9184121328       -1.0117326838        1.8278690948
 O         -4.7777764447       -2.0211120555        5.4460782104
 H         -4.6358159387       -1.0872474153        5.2321473707
 H         -5.4523576892       -2.3172563226        4.8216717372
 O          6.6977372331       -3.2758975180        1.7900376979
 H          6.8941763765       -3.9108913248        2.4793830453
 H          6.1586013588       -2.5686283203        2.2177795850
 O          3.7918582294        1.5269015619       -1.1161158914
 H          4.2502708933        0.7969546023       -0.6495279869
 H          2.8311787696        1.3472307153       -0.9973270831
 O          0.4233070763       -5.5961082841        0.8628213976
 H          1.2702009356       -5.7439537876        1.3024378592
 H         -0.2102177208       -5.3728176329        1.5622141602
 O          3.1444217493       -3.3620774848       -3.6562192720
 H          3.7939748833       -3.8992808730       -3.1771564792
 H          2.2666677481       -3.7502713714       -3.4402985874
 O         -2.2728734935       -0.7813707135       -1.0127550759
 H         -1.4470594044       -0.6998154133       -1.5175679113
 H         -2.1413613279       -1.4849507531       -0.3571062857
 O          5.9896592153       -0.4522669183       -3.8842629713
 H          5.5261029780        0.4124095021       -3.8242190520
 H          5.5205362888       -0.9441844256       -4.5969264252
 O          5.1122958217       -0.3464518659        0.2476840692
 H          5.9745239867        0.1094031093        0.3633561688
 H          5.2563199691       -1.0230012754       -0.4430315363
 O          8.0169342043        2.3701567857       -1.4564263173
 H          8.1587906517        1.5504204013       -2.0022337417
 H          8.8444546066        2.8512846692       -1.4800015076
 O         -6.6963139558        0.1850788450        2.3601769170
 H         -7.3347437883        0.0549886111        1.6223329448
 H         -6.6691049665       -0.6654448854        2.8346993050
 O          4.3012507756       -3.7871541507        4.1520786111
 H          3.6686816037       -3.5787868914        4.8494440253
 H          4.4920376506       -2.9456188484        3.7120869062
 O          4.3679503090       -3.7233324647        0.4011491498
 H          5.2349028568       -3.6275909504        0.8344277321
 H          3.7874748843       -4.2299211961        1.0197150983
 O         -2.2795482303       -2.9917701313        4.9630877475
 H         -3.1388330689       -2.7538610509        5.3647616104
 H         -1.6045100160       -2.3689533992        5.3009709801
 O         -5.9162266216       -1.8663771107       -0.5130158357
 H         -5.3889796276       -2.0812101588       -1.2917467613
 H         -5.3597611902       -1.2665843157        0.0228714196
 O          0.4521479674        5.5396390893       -2.7784852963
 H          1.2128027029        5.1974355557       -3.2645953291
 H          0.4983776558        5.1079949331       -1.9105474048
 O          0.5031056761        0.4719385419       -6.2808946625
 H          0.8686327267        0.3013719810       -7.1484897088
 H          1.2697718853        0.5149550037       -5.6640234558
 O          1.2546262584        1.0770886441       -0.4927754949
 H          0.8419791711        1.9548121775       -0.5664779636
 H          0.7730232728        0.5003550624       -1.0933542781
 O         -4.6217342473        1.8824122760       -0.5783589538
 H         -5.2034870629        2.3867309004        0.0216691619
 H         -4.3569353319        1.0966525180       -0.0689229213
 O          2.4966911580        3.7257106071       -3.4385326559
 H          1.7682129374        3.0955450334       -3.2956930388
 H          3.2413858711        3.1955634922       -3.7536427175
 O         -3.9407076001       -2.2433154931       -2.4360160944
 H         -3.3659197857       -1.6107536037       -1.9280415347
 H         -4.4150101600       -1.6992353797       -3.0874873351
 O         -6.4806934449        2.7594327562        1.2244639173
 H         -7.3483298949        2.7991607036        0.7549015356
 H         -6.5741916741        1.9782729515        1.7884563697
 O          1.1677158427       -2.9592650132        3.0873925098
 H          1.0484793299       -2.0098552615        2.8926907844
 H          1.4740973377       -2.9734209674        4.0235975272
 O          5.3127530034        1.9573766329        2.2345087166
 H          4.5274905513        1.4095146665        2.0106075299
 H          6.0562900879        1.6372010051        1.7013805795
 O          7.3957913259        0.8885247932        0.6980544192
 H          7.6250843030        1.5150616345       -0.0186825920
 H          7.8676219584        0.0565935405        0.4951485741
 O          7.9807201264       -1.6172163148       -0.1790992364
 H          7.8514743544       -2.2353034276        0.5509204290
 H          7.2289614447       -1.8002146263       -0.7817018461
 O          2.0535259198       -2.5998901274        5.5677937758
 H          2.4644467790       -1.7509758829        5.2870468562
 H          1.2221753952       -2.3359491194        5.9786360066
 O         -6.4881645576        4.8904128430       -0.9134947722
 H         -5.5532786994        4.9025352197       -1.1839554013
 H         -6.5061915931        4.5261890240       -0.0247825950
 O         -3.8790233716        4.5861837274       -1.6302261592
 H         -3.2537795193        4.8896700629       -2.3011583650
 H         -3.3309837651        4.3703492170       -0.8457180359
 O         -1.1442883545       -4.2350203073        2.7599189662
 H         -0.2915381185       -3.7634984289        2.9004923175
 H         -1.6362919091       -4.0820748226        3.5787660170
