  147
       -244.15158000
 H         -0.1540274226       -0.7378217232        0.4738009173
 C         -1.0726067778       -1.2716412755        0.7146755852
 H         -0.8525182200       -2.3342925255        0.8112141788
 C         -2.1016602049       -1.0774603006       -0.3887115069
 H         -2.9862103231       -1.6731540377       -0.1696634554
 H         -1.6692999434       -1.4155071852       -1.3269307153
 O         -1.5633657391       -0.8367093235        1.9681204102
 H         -1.5319243843        0.1542066161        2.0043241048
 N         -2.5058858407        0.3357449325       -0.5019747886
 H         -1.6847243778        0.9842403655       -0.6112582726
 H         -3.0484062768        0.6201552407        0.3478532066
 H         -3.1217817778        0.4578520867       -1.3433714533
 O          0.1117153662       -1.3407223121        4.0246934213
 H         -0.6092594315       -1.2709713899        3.3702264927
 H          0.3890641523       -2.2672137618        3.9670761508
 O          4.8989585643        2.5724716636       -2.4399656891
 H          5.7317548749        2.2173913689       -2.7543054474
 H          4.1914323107        2.0638129037       -2.8833356639
 O          1.1791277964       -0.3534421583       -4.8234151085
 H          0.4516963159       -0.1996524809       -4.1652730665
 H          0.8488253969       -0.0778606871       -5.6783168952
 O          0.5073302425       -3.8107812498        2.8942355147
 H          0.9368379393       -4.6023117181        3.2204496168
 H          0.9550322959       -3.5796441223        2.0525657175
 O         -5.6386672612       -1.2874955045        2.1282553622
 H         -6.3306452527       -1.1710860144        2.7803797284
 H         -4.8576979292       -1.6862181474        2.6215413079
 O         -6.5846669292        0.3918216871       -1.5240360737
 H         -6.4893847503       -0.4939724229       -1.1153293857
 H         -7.3679596554        0.3642109124       -2.0749921881
 O          0.8843347691        3.0308177159       -2.8203574772
 H          0.2494854908        3.1881728282       -3.5255790469
 H          0.3399385339        2.7330509294       -2.0608511748
 O         -2.8942971678       -1.4186950315       -3.6320308230
 H         -3.3311606569       -2.0894554500       -3.0699800119
 H         -3.4914321842       -0.6607531206       -3.6150840835
 O         -3.3981477919        3.2988423859       -1.6726499359
 H         -2.8084250507        3.5175577581       -0.9318535941
 H         -4.2734331049        3.2579261977       -1.2339116488
 O          7.1994850337        0.6916468271        0.9338591627
 H          8.1323693544        0.8980964723        0.9813771247
 H          6.7936943428        1.0053155632        1.7650524597
 O         -0.7570319722        0.1922266248       -3.0958064965
 H         -1.4870403767       -0.4113847484       -3.3286567849
 H         -1.0623477424        1.0872315104       -3.3120454980
 O          3.4898787225       -2.9348891795       -2.5747067577
 H          3.8681974424       -3.4423972663       -1.8463367090
 H          2.7551359764       -2.4235022976       -2.1741331383
 O         -0.4710678745        2.1292346979       -0.6840231441
 H          0.3302983595        1.5779928858       -0.4942775631
 H         -0.4157692872        2.8632346199       -0.0448773201
 O         -6.2758188748       -2.0329306169       -0.3516832148
 H         -6.0190863046       -1.8155333027        0.5723367684
 H         -7.0023158429       -2.6559747497       -0.2980597177
 O          1.5858725104        2.6264715410        3.4594881871
 H          2.5126271651        2.8419692030        3.2141521854
 H          1.0525484776        3.1860100983        2.8742803537
 O         -2.7596076512       -4.5431660522        0.0272634768
 H         -1.8180564579       -4.5390016615       -0.3039938050
 H         -3.0613480550       -5.4465814274       -0.0825446888
 O         -4.1323452113        0.8439985910       -2.6031384577
 H         -5.0478654505        0.7092601895       -2.2953393118
 H         -3.9429056775        1.7935383212       -2.5081065384
 O          3.9766556658        3.0382704969        2.3233434303
 H          4.7252370723        2.6606877449        2.8088049877
 H          3.9918014254        2.5729275993        1.4623385250
 O         -4.1146275203       -3.0562534975       -1.8631886278
 H         -4.9026668365       -2.7358725800       -1.4050210583
 H         -3.6336400125       -3.6200333737       -1.2310841553
 O          5.8683049907        1.2704885278        3.2690445098
 H          6.2653807500        1.1222104077        4.1273228894
 H          5.2449434117        0.5096742177        3.1114842465
 O         -0.3219077090       -4.5305275601       -0.8674358604
 H          0.4410986162       -4.2358918611       -0.3444945270
 H         -0.3444894550       -3.9614846166       -1.6614125628
 O         -3.5176369633       -2.0493220671        3.3736915557
 H         -3.2185451257       -2.9864237222        3.3254852398
 H         -2.8553718295       -1.5845385924        2.8283083202
 O         -0.4456378750       -2.7579477634       -2.9097767315
 H         -1.2541702763       -2.6082138975       -3.4084628424
 H          0.2484708321       -3.0091248022       -3.5722517259
 O          1.4919962943       -1.5286563489       -1.4526757398
 H          0.7084857817       -1.6449950957       -2.0138562492
 H          1.5487598080       -0.5945705781       -1.1730624273
 O          4.0900147376        1.6925814154       -0.0173528000
 H          4.4569885450        2.1127905012       -0.8197069177
 H          4.5515772240        0.8397332137        0.0856335263
 O         -0.5507756960        1.2683601003        4.7695407859
 H         -0.2506810548        0.3466010713        4.7922348144
 H          0.2465690585        1.8143447027        4.7489137924
 O         -2.6705735549        3.7825263180        0.9262003020
 H         -2.4673992915        3.0111483075        1.4803196345
 H         -3.5562690428        4.0657093251        1.1584113243
 O         -3.3373774521        0.6920849329        4.1755329071
 H         -3.4373933975       -0.2562689629        4.3242975634
 H         -2.5555234936        0.9712196232        4.6636742622
 O          1.6465924118        0.7495402056       -0.0954058908
 H          2.5137288363        1.2002768848       -0.2122479389
 H          1.6466621888        0.4733411356        0.8458468774
 O          0.1723054286        3.8224182944        1.3370913199
 H         -0.4977650100        4.5093552890        1.3722561043
 H          1.0498086035        4.2858177183        1.1375837455
 O          1.5532231761       -3.0928555814       -4.5797628436
 H          1.5920326138       -2.1505353971       -4.8122835684
 H          2.3459796314       -3.2674575398       -4.0516968162
 O         -4.1313220713        0.9265068424        1.6084730879
 H         -3.7587773236        1.0349090349        2.5076605018
 H         -4.7530594482        0.1800508208        1.7006738076
 O         -1.7329600954        2.7194849971       -3.8025466817
 H         -2.2505456062        3.0442058512       -3.0457416192
 H         -2.2583326170        2.8888824661       -4.5851875242
 O          2.9570127776        4.4932215757       -1.6379747570
 H          2.2242810842        4.0835911327       -2.1214634597
 H          3.7623680673        4.0558133738       -1.9355845900
 O          2.4297297806        4.9469392000        0.9496384559
 H          3.1185838070        4.4969521026        1.4580539241
 H          2.6793637394        4.8704089655        0.0045651588
 O          4.4265604380       -3.4445746125        0.0593011286
 H          4.7298892991       -2.5121177267        0.0870241268
 H          5.1113983730       -3.9710754000        0.4714089031
 O          1.7020368325        0.1604057239        2.4847797328
 H          1.6633814563        1.0551367681        2.8952192704
 H          1.1856934772       -0.4354634745        3.0667912925
 O          2.7544834808        1.0931655202       -3.1513594562
 H          2.3580997318        0.5424477837       -3.8479406847
 H          2.0857495372        1.7825697882       -2.9694516821
 O          5.1947931109       -0.8334104834        0.0026536683
 H          6.0751808127       -0.4937298836        0.2381933010
 H          5.1239830410       -0.7565435317       -0.9922580949
 O         -1.3405925267        1.7528236153        2.2565608591
 H         -1.1634567583        1.6756292718        3.2184870996
 H         -0.6328356322        2.3173534096        1.9079911786
 O         -5.4758817321        2.6054882493       -0.1217594906
 H         -5.0364769630        2.1097954291        0.5903634617
 H         -6.0658041641        1.9741423294       -0.5513617727
 O          4.2528560816       -0.7058060595        2.6415686730
 H          4.5089132647       -0.8664605925        1.7235025089
 H          3.3212738740       -0.4087275737        2.6096577557
 O          1.7205903692       -3.2860612795        0.5434324848
 H          1.6038126647       -2.5577905341       -0.1037933343
 H          2.6673238930       -3.4976173362        0.4930749973
 O         -2.2849762545       -4.2914839591        2.7465553749
 H         -1.3283156132       -4.1553319884        2.8264971067
 H         -2.4740939870       -4.3921287391        1.7969213284
 O          4.8459343084       -0.6152309215       -2.5583474557
 H          4.0913098258       -0.0240725752       -2.7083134887
 H          4.5098918423       -1.5094742573       -2.7680393107
