  459
       -779.16030117
 O          7.9954681646        2.8372888697       -3.6081872115
 H          7.4019307892        2.9473573935       -2.8355075403
 H          8.8755701791        3.0018253130       -3.2639656319
 O         10.0507205124        0.5901703665        0.6083589419
 H         10.9467820257        0.7834533692        0.8797739246
 H          9.7495369038        1.3506513349        0.0517038868
 O          3.7237404243        1.4273860532        2.1635669132
 H          2.9501499781        1.7521422012        2.6548624463
 H          4.0995952953        0.7159195366        2.7086028835
 O         -1.1399818500        2.2193972761       -2.5146304652
 H         -0.5732234096        1.9378870975       -1.7715841342
 H         -0.9521066184        1.5681509407       -3.2252316779
 O         -0.3218921009       -3.9465657290        6.0227297771
 H         -1.2357111396       -3.9289884017        5.6835373054
 H         -0.0082996155       -4.8314750166        5.8011241804
 O         -4.4755445910       -6.0667968630       -2.5183244538
 H         -4.7880844755       -6.1232322172       -1.6034088880
 H         -5.1558038573       -5.6021650524       -3.0311763892
 O          0.3838815608       -3.3962786997        0.2793319802
 H         -0.1203977974       -4.2159988455        0.1072757714
 H          1.1819746178       -3.7192442278        0.7413324744
 O          4.2446298114        5.0040195233       -3.4738200141
 H          4.7340437214        4.5349784913       -4.1733351664
 H          4.8769123215        5.5756960520       -3.0218070934
 O          7.8891252222        0.1748665717       -4.2389438770
 H          8.0633085091        1.1036586720       -4.0039542581
 H          7.0904620540       -0.0788728485       -3.7192134864
 O          1.5216400182        6.7338068326        2.1261406795
 H          1.7525724615        6.5327519041        3.0517560685
 H          2.3160977774        6.5867061616        1.5917207408
 O          3.7695657253        3.9294723315       -0.9337271183
 H          3.7623962574        4.1582413812       -1.8743609997
 H          3.4329943143        3.0270223886       -0.8452162184
 O          3.4516450237       -3.9502048315       -1.2284512790
 H          3.2306350265       -4.1099617023       -0.2842965219
 H          4.3268975926       -3.4980287268       -1.2855889684
 O         -1.9659260747       -0.3627359867       -0.7958937893
 H         -2.4996122078       -0.3583542896       -1.6122713412
 H         -1.1968717328        0.1851284194       -0.9871718206
 O         -1.7548527452        1.1557313958        3.9044449359
 H         -1.4751632122        0.2240573852        3.9771805280
 H         -2.7195462517        1.1768887552        3.7765467484
 O          2.3938214041       -4.7275278422        4.0277143762
 H          1.7788741404       -5.4049786609        4.3472239206
 H          2.3857063378       -3.9927331724        4.6819819184
 O          1.5470825027       -5.7686575633       -5.4377651631
 H          1.1482080895       -5.9707593090       -4.5620258925
 H          1.2986576682       -6.4799200642       -6.0266154498
 O         -0.8727236292        4.7479953190       -3.3940183634
 H          0.0142964279        5.0820199316       -3.5967849270
 H         -0.7859199268        3.8167119328       -3.1022599890
 O         -2.6310514532        4.1385201680        2.6074621542
 H         -2.6815546305        5.0776323321        2.3322502753
 H         -3.1387895514        3.6484074946        1.9372915196
 O          0.2882077503        1.1278314284       -0.5453506016
 H          1.2281913829        1.3938995859       -0.6490464190
 H          0.0380281043        1.4174087744        0.3703979281
 O          1.7206582081       -0.7140233814       -3.4869788031
 H          1.9883862479        0.2215514218       -3.4522155749
 H          2.5201584423       -1.2423482868       -3.7360585872
 O         -6.7246574134        1.7225142190       -1.0206004282
 H         -6.0994293468        1.1240723335       -1.4713321004
 H         -7.1613799427        1.1571018529       -0.3471828195
 O          3.6655331839        4.3585010583        3.3602901948
 H          3.0767381652        4.0052973321        2.6564543338
 H          4.1133324981        3.6033624497        3.7911561729
 O          7.0386521401       -0.3118987534        5.3775255581
 H          7.5575170571       -1.0792263139        5.1048540052
 H          7.5948883291        0.4595519094        5.2614008042
 O         -5.7660578052        1.3233945327        1.6709164407
 H         -5.3575529323        1.2319234711        2.5491770517
 H         -5.4282889239        0.5877471736        1.1170949595
 O         -3.4112108656       -1.3698603857        5.4756394250
 H         -3.8204709290       -1.1510107401        4.6185283855
 H         -3.6108056792       -0.6333499549        6.0698774374
 O          6.9405500282        0.7645500379       -0.6172492291
 H          7.4427151344       -0.0607766015       -0.4246619386
 H          6.5216972060        1.0384758521        0.2030025467
 O          5.7352330799       -2.6612502745       -1.2081395120
 H          6.4468837129       -3.3233969025       -1.2920425434
 H          5.8853144225       -2.1662524317       -0.3832729688
 O         -0.6504203500        0.2848361708       -4.2272148147
 H          0.1780646438       -0.2149218322       -4.1306589569
 H         -0.6885008812        0.6826087382       -5.1181602657
 O          1.2779581577       -3.6186391069       -2.7050303785
 H          2.1316691945       -3.6539334536       -2.2325413767
 H          0.9647292727       -4.5378929340       -2.7682136724
 O          3.1940177906        0.2213315744        6.3624248852
 H          3.2824120598        1.1598020134        6.5839094646
 H          2.2396186983        0.0790553244        6.2623389364
 O          1.4879261917        1.6564614572        3.6518447704
 H          0.7741443314        1.9282144610        3.0513920557
 H          1.1020405386        1.4727531576        4.5250916487
 O          6.1857575359        0.6868787806       -6.2241264991
 H          6.9278694076        0.4639480315       -5.6184987689
 H          6.1449995694        1.6505917103       -6.2594818245
 O          2.5769555073       -1.4000731708       -6.7110426164
 H          2.0173492428       -0.7834606743       -7.2158317811
 H          1.9777530634       -2.0064650918       -6.2355612097
 O          6.5258968164       -3.4970365367       -4.2595952807
 H          6.2734331845       -2.9707565952       -5.0303512261
 H          5.8085713129       -4.1319220305       -4.1518425101
 O          3.1497000119        2.5597576218       -6.6665103669
 H          3.3490529628        1.7675936578       -6.0886480814
 H          3.9184797207        3.1287775757       -6.5860641452
 O          1.7466580625       -0.9641879667        3.2042234983
 H          1.7292040446       -0.0005623229        3.3762205993
 H          0.9194350545       -1.1691463341        2.7412836181
 O         -3.0102537239       -0.4529064754       -3.2715721538
 H         -2.1360123802       -0.3324961978       -3.6947308032
 H         -3.6563439755       -0.0457775021       -3.8577549330
 O         -3.0214375166        5.0587457917       -1.9526461260
 H         -3.6390295114        4.6718686881       -2.5847185560
 H         -2.1941044756        5.1878320814       -2.4604041328
 O         -2.5337384573        3.6914261407       -5.3145315594
 H         -1.9004295582        4.1867064336       -4.7662619141
 H         -3.3540282696        3.6520179882       -4.8030408367
 O          6.2828218512        3.2899094420       -1.6014583323
 H          6.1186727684        4.2507831418       -1.6392013428
 H          6.1062033039        3.0409811083       -0.6765815110
 O          1.0935419680        3.8524030066       -1.1595974099
 H          0.1600113587        3.7199901266       -0.9177772111
 H          1.3409412913        3.2000249258       -1.8488203548
 O         -7.7146061080        3.1510871712        1.8368651238
 H         -7.0779107201        2.4340943904        1.6335610007
 H         -7.8162686497        3.1093836227        2.8060984549
 O         -4.2619369102       -5.2390192982        2.8650024330
 H         -5.1376640994       -4.8346573763        2.9768963639
 H         -3.8179975318       -5.0450950631        3.7050557005
 O          1.5960166688       -7.3082833848       -0.6716945276
 H          2.3401181664       -7.0369331365       -1.2573546093
 H          2.0139707985       -7.4559272658        0.1831699754
 O          0.1375053877       -3.3846978470        3.1323401773
 H         -0.4790042178       -4.1134654201        2.9527897724
 H          0.9975192946       -3.7991853782        3.2909781960
 O         -6.9606956457       -1.9443560194       -5.2051281722
 H         -6.6983123513       -2.8410682082       -4.9261355557
 H         -7.7081717440       -1.6962395598       -4.6483399225
 O         -4.6871611450       -0.5635589581        0.0000310473
 H         -5.0872639289       -0.5666119271       -0.8807790206
 H         -4.2159467929       -1.4051929735        0.0617454711
 O          0.8026361061        3.6966987285        5.7273904348
 H          0.0335216378        3.2427112153        6.1019679851
 H          0.6246369468        3.7674133275        4.7643071464
 O          3.9101423645       -2.4577790821        2.6106594689
 H          3.1929231594       -1.8794775832        2.9266786165
 H          4.4629010725       -2.6924700276        3.3940533544
 O          8.1829882773       -3.5548763338        1.2690850805
 H          8.2091989519       -2.7148442059        0.7728243806
 H          7.2395256610       -3.8074792688        1.3405784822
 O         -8.9423107558        4.2064258035       -0.4446506307
 H         -8.5324568918        3.9594122677        0.3966853575
 H         -8.2031086424        4.4275144053       -1.0328904683
 O         -4.0882923459       -2.8608581279       -2.8801893725
 H         -4.4245515063       -2.8870480841       -1.9615049441
 H         -3.6660041232       -1.9862452515       -3.0061854380
 O         -6.4592206993        4.3151704726       -1.6071407728
 H         -5.9527483363        4.2511287688       -2.4396848029
 H         -6.4773038729        3.3954338877       -1.2748961297
 O          0.9937625348        3.1240577263       -5.2957769892
 H          1.7732600556        2.9699356193       -5.8795946014
 H          0.2327900660        2.7338213806       -5.7407324552
 O          5.6391820158        3.2924562725       -5.1645599658
 H          5.1748052001        2.7077664481       -4.5149014219
 H          6.5504267357        3.3351994574       -4.8476473348
 O         -6.4517726860       -2.0032783571        1.4809190879
 H         -6.1051220698       -2.5050838214        0.7083927165
 H         -5.6703453509       -1.6579363310        1.9478904546
 O          2.6442192272       -4.3872553971        1.2367514926
 H          3.0520247064       -3.8199399169        1.9205562503
 H          2.8850652361       -5.3153663683        1.4165702998
 O          9.0192322840        2.5113683198       -0.9014186193
 H          8.7605572127        3.4097825918       -0.6312538929
 H          8.1865255699        2.0010676013       -0.9450904790
 O          3.6316346510       -6.9208089897        1.3778923357
 H          4.0837535746       -6.8677832003        2.2285149227
 H          4.3365515565       -6.9498096822        0.7160889268
 O         -2.8645963649        0.7641896656        1.4642475575
 H         -3.2251959377        1.6185184160        1.2147499072
 H         -2.7562591432        0.2844962640        0.6191520321
 O         -2.4817860071       -2.7589755994        2.4724492212
 H         -1.6854132765       -2.1938928739        2.4008685106
 H         -2.6946927267       -2.9920973228        1.5400375959
 O         -2.7993067043       -3.9572916321        4.8558196827
 H         -3.2634823792       -3.2505705053        5.3224188815
 H         -2.5772363925       -3.5813252712        3.9795440401
 O          7.7587078531       -4.5363580747       -1.2624776558
 H          8.1496495197       -4.3555314626       -0.3870275801
 H          8.3541401441       -4.1760178034       -1.9241667378
 O          3.8393386595       -2.2022369342       -3.7809963888
 H          4.3997708536       -1.9304976155       -4.5244353649
 H          3.7909872850       -3.1700281435       -3.8605751224
 O          1.0040767079       -3.1004398753       -5.3230779262
 H          1.2174961041       -3.0941551796       -4.3654341989
 H          1.1661516119       -4.0161874832       -5.5990938575
 O          5.6298903046       -3.1782471196        4.4697047516
 H          5.3278656304       -2.8465688599        5.3428693149
 H          6.5245877633       -2.8348536059        4.2935870246
 O         -5.1004862389       -5.6957174498        0.2043087831
 H         -4.6016604789       -5.6706225289        1.0325818294
 H         -6.0359907337       -5.6990641995        0.4804182679
 O          1.9863709233        3.5609601293        1.4661349355
 H          1.2103983037        3.8329725585        1.9814357847
 H          1.8033654905        3.7692604558        0.5373802308
 O         -1.0122952331        6.7161868831        4.0488739409
 H         -0.2917701381        7.3494215613        4.0343310422
 H         -1.6241484647        6.9515099326        3.3369122246
 O         -0.4623394333        2.0608431498        1.7259844914
 H         -0.9078804662        2.7821266495        1.2512697410
 H         -1.1427302776        1.5819309735        2.2349784114
 O         -3.8662288873        1.0355162852        6.7342799947
 H         -4.1875655872        1.1634487798        7.6250506921
 H         -3.0288016683        1.5534615536        6.6477613871
 O         -4.1509032578        3.1018168362        0.6075507238
 H         -4.9219013939        2.5878666058        0.9357073213
 H         -4.4408218184        4.0085111439        0.3847916996
 O         -5.1619453889       -0.0062978472       -4.9676004437
 H         -5.6594652809        0.8083578263       -5.1395966561
 H         -5.7621133202       -0.7510339612       -5.2035891398
 O          0.3542075141       -6.1495604455       -3.0518286711
 H         -0.5681413083       -6.3789726278       -3.3167279630
 H          0.6469635971       -6.8074384460       -2.4141374683
 O         -4.4736647190        1.5273802220        4.0634019511
 H         -4.5116508731        1.1649336031        4.9585808611
 H         -4.6764622022        2.4785053872        4.1796807647
 O         -6.7395985113        2.2513754217       -5.0460066246
 H         -7.1605453862        2.5967976450       -5.8327392628
 H         -7.4377047592        2.1205540282       -4.3718591736
 O          8.3189694456        5.1250674262       -0.2087520926
 H          8.2521395254        5.0823292382        0.7831474607
 H          9.0661654679        5.6925318955       -0.3968329084
 O          1.1934387658        0.7085741850       -7.7031370666
 H          1.8376290344        1.4240937576       -7.6505677433
 H          0.3409426278        1.0685747855       -7.4263335604
 O          4.5557655109        1.9994718527       -3.1339553941
 H          4.8571361791        1.0740052972       -3.1657309653
 H          5.1316224828        2.4553852388       -2.4812633564
 O         -7.9242728947       -3.4269452477       -1.9339818243
 H         -8.1763748255       -2.6318187004       -2.4186850832
 H         -8.5857670188       -3.5074743418       -1.2128498582
 O          4.6455821983       -0.1374408846        4.1549939915
 H          5.5179917677       -0.3489811035        4.5374405215
 H          4.0175373332       -0.1852579950        4.9065087900
 O         -2.0696154604       -6.7254704205       -3.9494136863
 H         -2.7984914378       -6.9642316752       -3.3663264887
 H         -2.3740587708       -5.9191481619       -4.4045921740
 O          4.3885269794       -2.2937493223        6.6433548501
 H          3.4788897965       -2.4688390648        6.3485598050
 H          4.3918885753       -1.3550475931        6.8572543316
 O         -5.2552437966        4.0142830009        4.6281084727
 H         -4.4928889903        4.4118242018        5.0759056312
 H         -5.4210090899        4.5592861539        3.8285402610
 O         -9.7397009057       -3.1957109894        0.0152674679
 H        -10.1985379667       -2.4277028484       -0.3435604640
 H         -9.5296175840       -2.9526762921        0.9420156417
 O          1.6502943998        5.5225727940       -4.1717943078
 H          2.5833588571        5.4041282111       -3.9238476209
 H          1.4574531708        4.7931674816       -4.7816035471
 O          0.5146270342        0.4799791416        5.9188350589
 H          0.0595589154       -0.2645880279        5.4671214899
 H         -0.1329623166        0.9066493505        6.4820220853
 O          8.4110965248       -1.4205784091       -0.4105778867
 H          8.4543014145       -1.7365257681       -1.3487056199
 H          9.2365968227       -0.9582444850       -0.2197411034
 O          5.0415404668        2.4814184671        4.6778424656
 H          4.8602073923        1.5395916134        4.4660995819
 H          4.5583836061        2.6695907534        5.4967176958
 O         -8.5744966320       -0.9220444142       -3.0587578616
 H         -8.5435046343        0.0187527952       -3.3192474803
 H         -9.2052058852       -0.9121555806       -2.3001543557
 O         -3.7444026531        1.9323208771       -1.8728406673
 H         -3.8416265128        2.3150413388       -0.9864933611
 H         -2.7946820140        2.0022732627       -2.1034250631
 O          7.2888758527        2.5030363534        3.1509542363
 H          6.6309212689        2.5685741247        3.8628211460
 H          6.7626908368        2.6275862896        2.3252036167
 O          3.5031729861        6.3219561243        0.1007063923
 H          2.8284635033        6.7001050474       -0.4867378305
 H          3.5091811379        5.3665849466       -0.1440181254
 O          3.6496583649       -6.3933590354       -2.1006642792
 H          4.4749820253       -6.6412148059       -1.6486507646
 H          3.5076416219       -5.4617911678       -1.7920282528
 O          5.7617679020       -1.1713884580        1.1115646806
 H          5.1115579659       -1.4670114414        1.7709356288
 H          6.5262245167       -0.8186336006        1.5934127112
 O         -0.8757094432       -1.3171724302        4.5504144797
 H         -0.5029263621       -2.1164848303        4.1208183231
 H         -1.6942852443       -1.5703853763        5.0103995487
 O          5.7127432052        2.8682502799        1.0491183690
 H          4.9062368421        2.4319032721        1.3885829302
 H          5.5791803754        3.8317525666        1.1858903448
 O          5.4413316963        5.4418609746        1.8068609068
 H          4.8209244435        5.1351879507        2.5127027092
 H          4.9050785550        6.0247861556        1.2566115133
 O          1.3286706551        6.4759648730       -1.5675292129
 H          1.3191782815        5.4959673784       -1.4593022065
 H          1.3659518757        6.6143397416       -2.5190648636
 O          3.9814817603       -4.8803601531       -4.3336825427
 H          3.9356563994       -5.5519436174       -3.6303023387
 H          3.2790296688       -5.1156727721       -4.9526715956
 O         -0.4691711608       -1.2211097797        1.5501955265
 H         -1.0199212206       -0.7799929813        0.8970076510
 H         -0.1814009260       -2.0722402282        1.1564042820
 O         -4.3018326899       -0.9955870966        2.8900958029
 H         -3.8447091137       -0.2752841643        2.4016661280
 H         -3.6964032167       -1.7698180853        2.7514285773
 O         -0.5630768395       -5.8587542028        0.0573218026
 H         -1.1880329424       -5.7115974477       -0.6778965097
 H          0.1780580380       -6.4109477075       -0.2560071902
 O          5.9539487385        5.9927494393       -1.4510369693
 H          5.2314951475        6.2350828194       -0.8520796266
 H          6.7623137343        5.9056627579       -0.9193334160
 O          1.8700913479        2.0402625857       -3.0122427010
 H          2.8434957562        2.0844105595       -3.0837576636
 H          1.5209164188        2.4147778689       -3.8461093455
 O          3.6682474088        0.4860483008       -5.1857220629
 H          3.2291120690       -0.2338421203       -5.6893116330
 H          4.6081644025        0.4388962859       -5.4346411036
 O          2.0823432729        6.0660307056        4.7053429884
 H          2.7622487034        5.4602926258        4.3502892357
 H          1.5367313724        5.5203314564        5.2810664470
 O        -10.1689434957        1.8052948560        1.6455367838
 H         -9.4172436606        2.4166910945        1.5992150993
 H        -10.5291041578        1.7627260502        0.7540920064
 O         -1.1681389356        1.6760935037       -6.4512292817
 H         -1.7253599793        2.4228676615       -6.1457996295
 H         -1.8127230593        0.9727467055       -6.6967137688
 O         -8.4546008189        1.7714573007       -3.0326156670
 H         -9.3060731567        2.0054415731       -2.6365154643
 H         -7.8121449283        1.7987049575       -2.2784749021
 O          8.0721505738       -2.2508275173        3.6726843767
 H          8.2931000972       -2.9157870294        2.9957227256
 H          8.0583506825       -1.4090822454        3.1766697259
 O         -5.9510597117        5.2247271662        2.3785959446
 H         -5.4897481294        5.5646804363        1.6021781981
 H         -6.6512749750        4.6370829703        2.0537374238
 O         -7.5216920769       -5.0151445514        1.1151987981
 H         -7.3306201222       -4.5737651639        1.9581841455
 H         -8.3790725383       -4.7017378452        0.8202029794
 O          1.9229950746       -2.5416494049        5.4548256122
 H          1.7670293088       -1.9276678208        4.7116101373
 H          1.0548901202       -2.8769543152        5.7502305905
 O         -7.9169906899       -0.0149029016        0.6213875352
 H         -8.1804825531        0.2732721718        1.5089386723
 H         -7.3169672015       -0.7842422100        0.7966175196
 O         -2.2288747155       -4.8199234741       -1.6804455312
 H         -3.0101089282       -5.1846293247       -2.1297429416
 H         -1.8846533913       -4.0429884916       -2.1772285759
 O          3.2000311642        2.9671744174        6.6452075866
 H          2.3306184181        3.2042405157        6.2446867746
 H          3.3238102544        3.5517728444        7.3918086506
 O          4.8716081128       -5.5959101150        3.5484250527
 H          5.3873767200       -4.9874706267        4.1013017652
 H          3.9436394085       -5.3321187137        3.7336324169
 O          5.7696178374       -0.3641505571       -2.7532520969
 H          5.5735846013       -1.2957430950       -2.5559689321
 H          6.1504533169        0.0183150918       -1.9390018690
 O         -6.6492559501       -4.0163544275        3.6011051633
 H         -6.6265604873       -3.0774522084        3.8932958887
 H         -7.1783757543       -4.4838917775        4.2464946414
 O         -3.1939304046       -4.4072715698       -4.8764560480
 H         -4.0079893365       -4.6175183216       -5.3362521632
 H         -3.4627273920       -3.9117933088       -4.0726426727
 O         -8.9268389512       -2.4457486630        2.4612015833
 H         -7.9809415460       -2.3867095700        2.2225891300
 H         -9.1501382090       -1.6113584991        2.8789872153
 O         -2.8709361713       -0.3430268818       -6.6037436351
 H         -2.3747156944       -1.0467065691       -6.1451246837
 H         -3.6982716718       -0.2299255025       -6.1158410252
 O          7.9263225878        0.0596485786        2.2765821921
 H          7.7412119060        0.9286287136        2.6899752051
 H          8.7083602923        0.1919102904        1.7136656161
 O         -2.6659337959        4.7071200856        5.2066399201
 H         -2.1215664409        5.5031795619        5.2045236337
 H         -2.6570564581        4.4042316816        4.2722186260
 O         -6.5897964316       -1.4228473893        4.3936636327
 H         -7.3257043798       -0.8929472116        4.0694437713
 H         -5.8022364043       -1.1202509770        3.9180166473
 O          8.5017472597       -2.2132287220       -2.9269490125
 H          8.5828877704       -1.4129015810       -3.4672016239
 H          7.7712250662       -2.7104982582       -3.3464944914
 O          0.2642654425       -6.3485840177        4.6412833986
 H         -0.3580786008       -6.1327069720        3.9162304572
 H          0.1631717620       -7.2812412287        4.8254179797
 O         -1.3563698536       -5.6204037061        2.5835753545
 H         -2.3178418767       -5.5650804819        2.5661832982
 H         -1.0686845062       -5.7996090480        1.6657769047
 O         -6.1437965171       -4.2134799444       -3.8725420932
 H         -5.4452841111       -3.6199491091       -3.5167728329
 H         -6.8716966635       -4.1761594101       -3.2347821514
 O          5.7597720087       -6.3081832339       -0.4432143029
 H          6.5653999436       -6.1342539389       -0.9420330585
 H          5.6762919540       -5.5211480484        0.1299467324
 O         -5.9580902431       -0.4476840647       -2.3768771454
 H         -6.8597954316       -0.7691795036       -2.5367713266
 H         -5.5487951872       -0.3185997491       -3.2471775916
 O         -5.5707085243       -3.2304616026       -0.6818108403
 H         -5.3071027633       -4.1200047076       -0.3629252651
 H         -6.4365746734       -3.3356650413       -1.1248061211
 O         -2.7012864031        6.7022327216        1.7895769780
 H         -1.9233768271        6.7075095720        1.1899586867
 H         -3.4813028672        6.8036215753        1.2382391263
 O         -1.6494772653        2.4249599008        6.1888878372
 H         -1.6058310556        1.9711611776        5.3046581750
 H         -2.0426422902        3.2990011792        5.9890077072
 O          8.0666507858        5.0634825215        2.4016233259
 H          8.0164439599        4.1687829738        2.7777105058
 H          7.1503854771        5.3863055542        2.3787979659
 O         -2.9262882210       -2.8283766436       -0.0766691032
 H         -2.7634808153       -3.6711993777       -0.5452625641
 H         -2.3469718162       -2.1845118840       -0.5125719369
 O          5.5890613177       -4.2891586562        1.3459934783
 H          5.4021933773       -4.8359561324        2.1446861516
 H          5.0783956082       -3.4793066472        1.4661519853
 O         -4.7899648216        3.5534736498       -3.6002067653
 H         -4.4337724520        2.8383075317       -2.9973945281
 H         -5.4171183096        3.1192233745       -4.1981595345
 O        -10.0345355899       -0.5240091256       -0.8882661195
 H        -10.4191976272        0.3463558534       -1.0405355124
 H         -9.2727260093       -0.3705684384       -0.2790730216
 O         -1.1516222153       -2.5401612856       -2.5037857066
 H         -0.2295989315       -2.8433628233       -2.5086898734
 H         -1.3560453341       -2.3083025097       -3.4258881291
 O         -0.4580503256        6.3538513823        0.4484897509
 H          0.2321727218        6.4576391768        1.1436559179
 H          0.0064636273        6.5934797127       -0.3735387426
 O        -10.5405052704        2.2831123714       -1.2376156812
 H         -9.9556857812        3.0304706634       -0.9354336664
 H        -11.3855727440        2.6780061580       -1.4524662968
 O         -4.7557870435        5.6559831130       -0.0634615230
 H         -4.0169135478        5.6810743596       -0.7022818147
 H         -5.5208212803        5.3752911238       -0.6092616415
 O          5.2352048326       -1.9263906097       -6.1837982865
 H          4.3735976986       -1.9287977560       -6.6267993783
 H          5.6776437286       -1.1119467662       -6.4521762886
 O         -7.6692033916        2.7905272164        4.5316551960
 H         -8.2709247499        3.2130908533        5.1446250663
 H         -6.7853901799        3.1741393077        4.6971607921
 O         -1.5369146426       -2.2734733818       -5.2002875832
 H         -2.0644620913       -3.0800511434       -5.3077639959
 H         -0.6089625119       -2.5164602871       -5.3929498085
 O          0.0014350145        4.3059617452        3.2386550489
 H         -0.8864877084        4.0047392989        2.9825699836
 H         -0.1067218135        5.2424767408        3.4732377713
 O         -1.3850282096        3.9118699410       -0.0405719571
 H         -1.0558389055        4.7939937393        0.2343059127
 H         -2.0691971217        4.0949047113       -0.7021364789
 O         -8.5862890091        0.3928716862        3.3181675881
 H         -8.1968731361        1.1060465141        3.8438748657
 H         -9.4065119699        0.7623937665        2.9500291925
 O          2.3492313919       -1.1932757174       -0.8372651058
 H          2.0714406634       -1.1386512856       -1.7669997308
 H          1.6960425063       -1.7474584704       -0.4048050529
 O          2.9653219703        1.3850279154       -0.4488147993
 H          2.9042274552        0.4331827809       -0.6731402858
 H          3.1393896132        1.3927309501        0.5043084567
 O         -6.3964579918       -3.6040557785        6.3536224416
 H         -6.4450988580       -2.7431993573        5.9209976169
 H         -5.5227216194       -3.9560988138        6.1712034685
