  129
       -218.85522043
 O          3.0713039907       -0.5962182827        0.3124925471
 H          3.4267213542       -0.9348804759        1.1624739889
 H          2.7473604729       -1.3804799818       -0.1597807189
 O          4.8256467465        2.5022831321       -2.0551507773
 H          5.1351153655        1.7216401653       -1.5556254454
 H          4.2524252181        2.1484795406       -2.7527361023
 O          1.2611924220        3.4043499862       -1.3066339094
 H          2.0947475790        3.8248998290       -1.0184033999
 H          1.2812283760        3.3158567987       -2.2763890967
 O         -2.9818199434       -0.8029419927       -1.4401266862
 H         -3.8494062885       -1.1995668397       -1.2229963691
 H         -2.9441611697        0.0376342032       -0.9263341937
 O          3.6561216867       -0.1918833207        4.3510940341
 H          2.8594749796       -0.2352693257        3.7715285018
 H          4.1041384411       -1.0320586868        4.2260781558
 O          2.3642618833       -3.3140916935        3.3095326056
 H          3.1273590428       -2.8264592182        2.9725347752
 H          2.1152506238       -3.9435393820        2.6193990885
 O          1.1431150683        2.9193046803       -3.9898754760
 H          1.3147917607        3.5883262982       -4.6535580587
 H          1.8779035260        2.2681603225       -4.0371542578
 O         -2.8789627892        1.3036659917        0.1138632159
 H         -3.7625036927        1.6758589080       -0.1179007421
 H         -2.2557815039        2.0310662906       -0.0752318434
 O         -3.4478569994       -0.2903319572        2.2246162441
 H         -2.7958002732       -0.1163904831        2.9479244185
 H         -3.1894383093        0.2930832400        1.4858263373
 O         -1.5260286171        0.1983606668        3.9368829623
 H         -0.9879829270        0.9043049139        3.5519081815
 H         -0.9797465980       -0.5998602814        3.9967257445
 O          3.6506953367        4.1483481034       -0.3989544857
 H          4.1551050501        3.5352640002       -0.9998447184
 H          4.1157179379        4.9848286200       -0.4088665260
 O          2.1326377309       -3.1271305992       -0.5151972177
 H          1.7156887988       -3.2761997396       -1.3683697955
 H          1.7057707826       -3.7293925618        0.1192350050
 O         -5.7375450182        1.1107150784        2.5819433070
 H         -6.2550482095        0.7758153991        1.8354113095
 H         -4.9387257702        0.5486434993        2.6173029253
 O         -1.3976563422       -3.6267745830        1.6446176738
 H         -1.2328943206       -3.1306198103        0.8194815827
 H         -2.3597626707       -3.5644190348        1.7731782859
 O         -4.0139686234       -2.8162124856        1.7329883597
 H         -4.5874326755       -3.0967796827        2.4473550053
 H         -3.7800356503       -1.8714513970        1.9282112195
 O         -1.4114495653        3.3009785689       -0.9075012943
 H         -1.5536795882        2.9398761852       -1.7990535206
 H         -0.4716008886        3.5401244709       -0.8902810786
 O         -5.2513134640       -1.9292290959       -0.5474786861
 H         -5.2972167999       -2.5074319423       -1.3306131183
 H         -4.8636853872       -2.4367522811        0.1894183839
 O         -1.3888082449        1.9063231873       -3.2643775941
 H         -0.5853839128        2.2850817593       -3.6465701819
 H         -1.3778838933        0.9560450195       -3.5006117936
 O          4.7630044458        1.8280983211        3.1626435021
 H          4.3418854648        1.0688453541        3.6647856204
 H          5.0598400654        2.4525481756        3.8256491915
 O          5.3696067786        0.2352556619       -0.6921722593
 H          4.4596993484        0.0135188132       -0.3756333940
 H          5.9117061399        0.2381632112        0.1142502561
 O         -0.1127964888        2.1212673621        2.3702340343
 H         -0.8827935601        2.7233384770        2.2143068330
 H          0.6661593010        2.6943106218        2.4429250658
 O          2.6886403381       -0.9567985815       -2.6192013775
 H          3.5084618242       -1.4689874116       -2.5516831934
 H          1.9593583015       -1.5745052431       -2.8257347466
 O          3.2028266433        1.2240126517       -3.9524280992
 H          2.9741951620        0.4065429721       -3.4324071083
 H          3.6378655699        0.9254288096       -4.7518999122
 O         -4.9413465687       -3.0139881631       -2.9709987830
 H         -5.3555280375       -3.6285144089       -3.5765205161
 H         -4.6751778918       -2.2328234191       -3.4959351679
 O          5.3085502904       -1.8930471545       -2.2730587342
 H          5.4557174850       -1.0765358189       -1.7376107538
 H          6.0617961080       -1.9872233251       -2.8558106001
 O          2.4906749678        2.8107852254        1.8227122737
 H          3.2526112113        2.4314470258        2.2878854372
 H          2.8688070648        3.3585110491        1.1222463919
 O         -4.3181217891       -0.7938364911       -4.4635166940
 H         -4.9107910425       -0.6132130891       -5.1939049196
 H         -4.3171963128        0.0258226153       -3.9163106776
 O         -5.2121689715        2.2941962897       -0.6295111715
 H         -5.8676531126        1.6101783325       -0.4000358305
 H         -5.2382397137        2.9501580530        0.0881037770
 O         -6.7697196246        0.1838357331        0.1391928981
 H         -7.6697024353        0.0097442170       -0.1375870415
 H         -6.2362507935       -0.5985061697       -0.1145100404
 O         -4.2113954560        1.5419944871       -3.1757610049
 H         -4.6007206349        1.8856129014       -2.3603554516
 H         -3.3014018497        1.8649631964       -3.2148018348
 O          1.5970892117       -0.1460703104        2.6764786621
 H          0.9854538840       -0.8522275444        2.9689545667
 H          1.1707437335        0.6944846398        2.8624048670
 O         -0.0292978870       -2.1027935509        3.4910087921
 H         -0.5658638850       -2.6620542688        2.8993454806
 H          0.7788844461       -2.6201024926        3.6803921699
 O          4.5422968814       -1.8760209724        2.1453799874
 H          5.2963963630       -1.2672199099        2.1487398694
 H          4.7463687184       -2.5359911201        1.4424798853
 O         -1.6143530655       -0.7647755539       -3.7537599811
 H         -2.2867522115       -0.8873478522       -4.4347318208
 H         -2.1261049198       -0.8443487252       -2.9215982721
 O          6.4129310527        0.1900681737        1.8379428115
 H          7.3033770473        0.3057317501        2.1701531553
 H          5.8482572227        0.8705634422        2.2717768207
 O          0.4345959781       -2.4412576137       -2.8486587479
 H         -0.1652474273       -1.9683017745       -3.4458121699
 H         -0.0251438938       -2.4095129912       -1.9884486251
 O          1.0177094286       -4.8251301640        1.3216011601
 H          0.1086594597       -4.5357242866        1.5250074885
 H          1.0200729348       -5.7826593084        1.3406022588
 O         -4.8496738929        3.4561318911        1.8146357805
 H         -5.2556009481        4.1502767709        2.3340661230
 H         -5.1739608084        2.5953931596        2.1982995587
 O          4.8131611929       -3.4325132689       -0.0011904786
 H          3.8638284492       -3.5171923352       -0.1871988078
 H          5.1746990729       -3.0021095484       -0.7906050009
 O         -2.0986304401        3.7576992808        1.7741206311
 H         -1.9666809739        3.9529373420        0.8387532621
 H         -3.0553476383        3.6093841180        1.8818714440
 O         -0.8155824784       -2.1429751882       -0.4615799796
 H         -1.6484490698       -1.7338234234       -0.7669596723
 H         -0.2854610856       -1.3615626696       -0.1667601692
 O          0.3154309443        0.1688171694        0.0966388135
 H          0.4052832706        0.9799053675       -0.4065686179
 H          1.0472112090        0.1785982059        0.7314399331
 O         -6.5086126109       -1.7830471224        2.8492005391
 H         -6.2166475408       -1.6595473441        1.9417651355
 H         -6.4583547430       -0.9189556050        3.2700717293
