  117
       -193.22402448
 H         -3.2369191209       -0.3461672433        0.5201361695
 C         -2.2656407948       -0.2868106306        0.0180417797
 H         -2.0029998467       -1.2695854909       -0.3771735628
 C         -1.2172565115        0.1718874602        1.0190473985
 H         -1.1452044328       -0.5581682667        1.8226456323
 H         -1.5008240289        1.1375535613        1.4390835295
 O         -2.3358016796        0.5723756953       -1.0961558713
 H         -2.3329720398        1.5276846778       -0.7952822234
 N          0.0820252980        0.3244304763        0.3496916549
 H          0.4071365889       -0.5757724393       -0.0683634306
 H          0.7938282056        0.6503047515        1.0151894746
 H          0.0061825702        1.0333575699       -0.4367554602
 O          0.2266049019       -3.3324584764       -2.8527998287
 H          0.0818724686       -3.3468040258       -3.7999712384
 H         -0.6597848186       -3.4587867247       -2.4438288457
 O          4.4162042022        0.6105684765        3.1856655907
 H          4.4457699405       -0.3537618412        2.9624023208
 H          4.8676611595        0.7014339103        4.0253224009
 O         -4.6249209292        0.6148143471       -2.4795201095
 H         -4.7302556051       -0.2631719703       -2.8667906053
 H         -3.7830608160        0.5527873553       -1.9766130048
 O         -2.9342740709       -0.8229265746        3.9081157340
 H         -3.3686039167       -1.3720547134        3.2131840320
 H         -3.4373922369       -0.9591164323        4.7128656016
 O         -1.1770674358        2.6322174772       -3.6217406597
 H         -2.0894340775        2.9151654987       -3.4669952414
 H         -1.2195200945        1.6784356574       -3.8514268963
 O          2.8743953427       -0.3400550624        0.2921614377
 H          2.9685174006        0.0016171922        1.1861411737
 H          3.7346447627       -0.7287108027        0.0543870185
 O         -3.1370964818        1.8909673934        3.3663209227
 H         -3.0224752756        0.9514514327        3.5843307595
 H         -2.2440668533        2.2632523170        3.2717454564
 O         -1.4512771194       -3.6423763990        0.9902588276
 H         -1.2227081769       -4.5695635484        1.0750164220
 H         -0.6178397099       -3.1711240269        0.7178873605
 O         -5.6671318095       -1.9335081556        0.1164544571
 H         -6.5283247894       -2.3120743219        0.2997958185
 H         -5.8037740459       -0.9403607760        0.1011697135
 O          0.0096908739        4.1603900019        0.5015549653
 H         -0.0608253868        3.5074084637       -0.2347132463
 H         -0.7008520485        4.7854518210        0.3541696005
 O          4.1955123807       -1.9459905121        2.6379069657
 H          3.2363702464       -1.9948529486        2.7835687783
 H          4.3865379297       -2.5289679487        1.8861702611
 O         -1.2259541537       -0.0432316323       -3.6087850548
 H         -1.7942639586       -0.0264015623       -2.8286099954
 H         -0.3409510599       -0.2155719966       -3.2390787059
 O          5.2949925249       -1.1530091328       -0.5639085089
 H          5.9621388065       -0.4484710291       -0.5016492247
 H          5.6137436022       -1.9596719981       -0.1463072528
 O         -0.7963124508       -2.5044380159        3.5820863130
 H         -1.4856577473       -1.8734819357        3.8549243909
 H         -1.1617200087       -2.9973116200        2.8352413299
 O          2.6214975094        3.2895669818        0.7603550700
 H          1.8550430387        3.8788035204        0.7074884130
 H          2.6764550714        2.8349302282       -0.1106817091
 O         -3.8599995176        3.1926659890       -2.9527264891
 H         -4.2496383444        2.2985168180       -2.9310924320
 H         -4.4137586935        3.7282748688       -3.5214548745
 O         -2.1779409826       -3.5690271588       -1.7349126043
 H         -2.9379275474       -3.0164941254       -1.9888292158
 H         -2.1332036456       -3.5865714220       -0.7683330659
 O          2.5596192892       -3.3350869135       -1.4072083423
 H          1.8366081681       -3.6738384539       -1.9579591254
 H          2.9487842158       -2.6123095851       -1.9231563007
 O         -3.8184691113       -2.4732579847        2.0459114531
 H         -3.0935711727       -2.9427851477        1.6150199768
 H         -4.4968961192       -2.3119688316        1.3659709978
 O         -5.9815688181        0.6237218572       -0.1150389755
 H         -5.5123713654        1.2703090586        0.4425794861
 H         -5.6479450277        0.7545334250       -1.0227279755
 O          4.5914879709       -3.6266043628        0.4524973749
 H          3.8621888423       -3.5988805473       -0.1916527358
 H          4.8158920231       -4.5489445305        0.5793708513
 O          1.9069127629        1.3621954807        2.4112654867
 H          2.1513888286        2.1295615265        1.8305433209
 H          2.7131430996        1.1955236562        2.9263221852
 O         -4.5115127823       -2.2004057167       -2.3177158457
 H         -4.9358451779       -2.1469750595       -1.4346216243
 H         -5.0234618474       -2.8222481239       -2.8368726500
 O          6.6027299087        1.2148637299       -0.6341501059
 H          6.0787092416        1.6972475629        0.0593693627
 H          7.5046157897        1.5261546057       -0.5497714611
 O          5.0395463059        1.4114299419       -2.8762742974
 H          5.3846406215        2.1023738501       -3.4424813745
 H          5.6598620177        1.3210370221       -2.1258709849
 O         -2.6113619320        3.1018731543       -0.4439876272
 H         -3.0075816155        3.3722030797       -1.2844550387
 H         -3.3455371361        3.0109867933        0.1930754107
 O          0.1449715203        2.3131357555       -1.4059684194
 H         -0.3703326736        2.4764820188       -2.2428522493
 H          1.0720297525        2.1855505100       -1.6697980825
 O         -4.6001737078        2.5220539606        1.3090102646
 H         -4.0663959571        2.2456692531        2.1053437054
 H         -5.2026275267        3.1969297656        1.6247605243
 O          3.6186651105       -1.0590495748       -2.6994180357
 H          4.2893121407       -1.0828608273       -1.9930160962
 H          3.9175689794       -0.3627711880       -3.2920522322
 O          0.9119433460       -0.7744086360       -2.1002033951
 H          1.8553668401       -0.7082559510       -2.3106630118
 H          0.6636674577       -1.6947950158       -2.2975590662
 O          0.7351249813       -2.3421551609        0.3644439480
 H          1.1706536178       -2.0789831137        1.2000076796
 H          1.4353851075       -2.6764953446       -0.2280607736
 O          2.7653347051        1.7377232222       -1.3979474572
 H          3.5269535601        1.6790894682       -1.9992806531
 H          2.7648354788        0.9048816723       -0.8753626498
 O          1.4998465028       -1.4862277614        2.7931916873
 H          1.4342084621       -0.5343728013        2.9268728155
 H          0.7210556227       -1.8923054201        3.2374296712
 O          5.2362359184        2.4073036818        1.2567840529
 H          4.4378540337        2.9266840569        1.0876352498
 H          5.0082000949        1.7844329568        1.9674845818
 O         -0.5880973664        2.6643859947        2.7071946857
 H          0.2665077436        2.2753487108        2.9256160108
 H         -0.4170522524        3.2960558803        1.9828446362
