  219
       -371.67515238
 O         -3.1767363420       -2.2454281943        0.8736228913
 H         -3.0518818048       -1.9220200834       -0.0553002585
 H         -3.1514578960       -3.2248933242        0.8236973600
 O         -5.8267772480       -1.0956797298       -3.0078382278
 H         -5.4868655835       -2.0054747006       -3.0408275942
 H         -5.1225212073       -0.5174017280       -3.3558522690
 O         -0.1268473775       -4.6896879629       -1.8769919332
 H          0.5742693905       -4.0095631749       -1.9595111161
 H          0.2802599634       -5.5130524216       -2.1503541537
 O          1.6305361515       -4.3769243898        4.2610747169
 H          2.0015188767       -4.5451706002        3.3797894712
 H          2.0282506070       -3.5512138755        4.5701240240
 O          2.4611776337       -1.7058408692        4.5752659259
 H          1.5599272923       -1.4414566637        4.2771842288
 H          2.9183128152       -0.8656303649        4.7476543468
 O          3.9971923851       -2.2027461131       -0.2732164507
 H          3.8698370747       -2.2343820977        0.6888301506
 H          4.7324942751       -2.8114169250       -0.4505675866
 O         -1.9952183532        0.4346082751        4.7862851186
 H         -2.2120484908        0.4909023998        3.8400678704
 H         -2.6900970494       -0.1506304499        5.1597957440
 O         -2.2244601403       -3.5610263281       -3.2529079508
 H         -1.7214671852       -3.0429897597       -3.9227007972
 H         -1.5552965774       -4.0549827853       -2.7504830173
 O          3.1483861241        2.8534405892        1.6896598262
 H          2.8162949973        2.9089100039        2.5945237881
 H          3.0425085796        1.9269883543        1.4175512282
 O          2.0355540531       -4.6777586287        1.5017615394
 H          1.1480552156       -5.0373023628        1.3613016152
 H          1.9329362093       -3.7141218318        1.3470473679
 O          0.0177452029       -1.0825695211        3.7399504138
 H         -0.5966221460       -0.5865891706        4.3080072066
 H         -0.3532641687       -1.9796076918        3.6413942116
 O         -4.8784965795       -3.7074215469       -3.1536234887
 H         -5.2314219264       -4.2239755067       -3.8782640405
 H         -3.9016707752       -3.7239863260       -3.2439928144
 O         -5.4939839772       -4.7371236671       -0.6338067790
 H         -6.2294637841       -4.1777099467       -0.3337401009
 H         -5.2575672902       -4.3990119483       -1.5125778236
 O         -2.2382672726        0.0025091271        2.1109205824
 H         -2.4431048218       -0.9022623296        1.8406207065
 H         -2.4722754801        0.5455309313        1.3364083530
 O         -4.1964091624        2.3837874981        2.1117259216
 H         -4.7738366680        3.1133259374        1.8335629437
 H         -3.8394937230        2.0162453978        1.2777735876
 O          1.7873464639       -0.9083708327       -4.9134441236
 H          2.4772209421       -1.1243572656       -4.2413361971
 H          2.2516773367       -0.7357403929       -5.7324091560
 O         -0.8048176480       -2.0531692837       -4.9192671334
 H         -1.2145987970       -1.1722697924       -4.9830509782
 H          0.1443343936       -1.8752641864       -4.8739645041
 O         -0.3662901730        4.5908171458       -1.0994126288
 H          0.3440384504        4.6589943762       -0.4184044931
 H         -1.1821432855        4.9305100068       -0.7156679421
 O          1.5938123260        4.8213146459        0.6691508056
 H          1.1510182769        5.0859570386        1.5043199754
 H          2.1290337828        4.0448944714        0.9279970582
 O          2.0869570035        1.7800172300       -1.1774396855
 H          1.7541468627        1.5351734059       -2.0522251352
 H          2.4142009154        2.6952482883       -1.2580918628
 O         -2.3548407133        3.7169274366       -4.0201466354
 H         -3.2489661178        3.8326141587       -3.6732798081
 H         -1.9416351502        3.1136451014       -3.3616703105
 O         -3.0873161672        4.3809174585       -0.3466082453
 H         -3.9023684886        4.5891245543        0.1298304809
 H         -3.3867701749        3.8463402885       -1.1091821881
 O          0.3137242277        4.9081968089        3.0096867036
 H          0.8141731510        4.2308800296        3.4947190153
 H         -0.4733671767        4.4576692866        2.6614610808
 O          7.0563204094       -1.5143118586       -0.1335212249
 H          7.6732262195       -0.7834776403       -0.2715055159
 H          6.4498166455       -1.1815973461        0.5668341106
 O          6.0005523681       -2.1405046835       -2.5689367596
 H          6.3656405316       -1.7895532003       -1.7295771868
 H          6.0174944293       -3.0947170256       -2.4700701887
 O          5.6617703153        3.8884892763        1.4419389536
 H          5.7270556366        4.1036822690        0.4999854396
 H          4.7530022826        3.5630118026        1.5735834454
 O         -5.3548511831        0.2019911545       -0.6726493638
 H         -5.5634779053       -0.3812730509        0.0850581093
 H         -5.5578159111       -0.3024613081       -1.4839384240
 O         -3.6544492593        0.5047273971       -3.1631351101
 H         -2.9367960220        0.5691793874       -3.8234014118
 H         -3.3275169198       -0.1438530017       -2.5028568006
 O         -5.6532124596        4.2961259156        0.8475801474
 H         -6.0541728823        3.6543653908        0.2040819574
 H         -6.3183279617        4.9602192471        1.0228520665
 O          0.7970105021        1.2876319381       -3.6426684232
 H          1.2320738067        2.1384720309       -3.9099406726
 H          1.2414550809        0.5701327974       -4.1364524707
 O          3.0418834565        4.2827368443       -1.6112520378
 H          2.6072849994        4.7931684695       -0.9147062009
 H          4.0030191564        4.3345309694       -1.4564914613
 O          3.9651483524       -2.3037000187        2.4625185086
 H          4.5998135000       -1.5673809439        2.4239454028
 H          3.3859805704       -2.1296257745        3.2384273481
 O          3.9774675761        1.4554080953       -3.7050842148
 H          4.8082482526        1.7017868993       -3.2815261624
 H          3.5083955870        2.2652362201       -3.9342224872
 O          6.1609462908        1.6829330032       -1.8592511772
 H          5.4607436046        1.1832095712       -1.3637220244
 H          6.9886094997        1.4262866507       -1.4241813569
 O         -0.2679081701        2.1558434420        5.9870187579
 H         -0.8901238565        1.5152957887        5.5919931967
 H         -0.7992170600        2.8013779143        6.4518445022
 O         -5.6327636560       -1.4197795017        1.4186419865
 H         -5.5905115050       -0.8284390975        2.1944605891
 H         -4.7203185554       -1.7612711227        1.2675160603
 O          1.9492497090       -3.0143578473       -1.9239223929
 H          2.5367251962       -3.7526710212       -1.6354343132
 H          2.5496498847       -2.3302630386       -2.2742758952
 O         -3.4258032251       -4.8932673409        1.0144671273
 H         -4.2013159578       -4.9553769657        0.4064966541
 H         -3.7629564334       -4.9298419560        1.9155404142
 O         -1.6618618482        3.4212211016        1.7602011216
 H         -2.4218492667        3.0725497843        2.2492524815
 H         -2.0425770768        3.7428780337        0.9187790405
 O         -2.2296896407        2.6041655432       -6.4540908393
 H         -2.2554579625        3.1300307215       -5.6236718139
 H         -3.0705563450        2.7388754347       -6.8902708592
 O         -8.2752408314       -1.1058561121       -1.6755615244
 H         -7.5222334695       -1.0491186017       -2.2822112272
 H         -8.0481460421       -1.8048339928       -1.0418431239
 O          3.5760609863        0.7491771077        4.1607772564
 H          3.3771615101        0.4883173843        3.2356457722
 H          2.9466848776        1.4671546515        4.3497741736
 O          4.2779575007        0.4356267056       -0.5393529296
 H          3.4261461495        0.8877324902       -0.7246731339
 H          4.1267018735       -0.5280815164       -0.6489007992
 O          8.2697478963        1.0106247404       -0.1615533756
 H          7.8930478277        1.2987484795        0.6978136690
 H          9.1785366079        1.3094287248       -0.1665271159
 O         -0.0455045868        5.2254922020       -3.7808772522
 H         -0.0645241462        5.1652454247       -2.8105034594
 H         -0.8919670855        4.8509837992       -4.0665327429
 O         -4.0496945744       -1.1930010938        5.2409563372
 H         -4.6249399998       -0.6895796952        4.6463499589
 H         -3.8677921244       -2.0354753997        4.7843610782
 O         -5.4389560802        0.4100865449        3.3768865894
 H         -6.2237611225        0.8313767101        3.7265724434
 H         -4.9021783840        1.1253600580        2.9518939119
 O         -9.0109352951        1.2854143421       -0.7164037385
 H         -9.7749093144        1.5141130847       -1.2455632832
 H         -8.7356963453        0.3899442088       -1.0228631641
 O          5.9519511001       -4.1188487273       -0.3202930277
 H          6.6494007222       -3.4667681878       -0.1731691009
 H          5.7139299323       -4.4518244147        0.5756972101
 O          0.1101783821        1.4309491311        2.1420201062
 H         -0.4413183604        2.1793270964        1.8436910796
 H         -0.5143765600        0.7272182310        2.3790117892
 O          5.5410354881       -0.2566406633        1.7088873268
 H          6.1360149003        0.4789019298        1.9554705867
 H          4.9409817008        0.1122333917        1.0300848977
 O          2.0241530922        3.5815088386       -4.0316059971
 H          2.4176913715        3.8925566377       -3.1956076772
 H          1.2829153937        4.2156789616       -4.1658230663
 O         -3.0004118554        1.3313137836       -0.0941417284
 H         -3.7684365199        0.8768965522       -0.4901126886
 H         -2.4449441413        1.6672690866       -0.8200496819
 O         -1.2587659131        2.2789339617       -2.0104456483
 H         -0.5030542356        1.8398112863       -2.4171581262
 H         -0.8933509075        3.0919951396       -1.5909868471
 O          3.5695473529       -1.1229441424       -2.9946387059
 H          3.7187546920       -0.1639093429       -3.0799786911
 H          4.4662297734       -1.5128549433       -2.8931884778
 O         -1.5745346462        0.5617630841       -4.8650048422
 H         -1.7901511056        1.1811916397       -5.5894428399
 H         -0.7664645908        0.9152911059       -4.4522193283
 O         -4.3629937376        3.0120689478       -2.3577781735
 H         -5.2561412823        2.9583792621       -1.9918412153
 H         -4.1212939108        2.0971811393       -2.6115676282
 O         -7.4409376741       -2.9640717580        0.2512170684
 H         -6.8142941644       -2.3850706790        0.7392129309
 H         -8.0998461508       -3.2524985324        0.8827749416
 O         -3.4319710640       -3.2938174439        3.5664434955
 H         -2.4986980488       -3.5340917294        3.7081882371
 H         -3.4195047336       -2.7507776930        2.7709847155
 O          3.2742756233       -5.0874095668       -0.9336311980
 H          4.2225078792       -4.9318738117       -0.8535798940
 H          2.9140854077       -5.0414690724       -0.0263818357
 O         -0.7568278211       -3.6542294078        3.3443406018
 H          0.0287896362       -4.0137383102        3.8187651112
 H         -0.6952353941       -4.0064478964        2.4439501848
 O          1.5456385072        2.5994861481        4.0520588809
 H          1.0296643310        2.5067927530        4.8744326040
 H          1.0149797510        2.1025617538        3.3855139228
 O         -6.6285455262        2.5185335403       -0.8297188203
 H         -6.1399747189        1.6715819675       -0.7092026188
 H         -7.5649953997        2.2436851741       -0.7886965342
 O          4.9228915958       -4.7658072688        2.0581256852
 H          4.6431165902       -3.8608823288        2.3157411530
 H          4.1051267075       -5.2676627331        2.0095033437
 O         -0.6618498411       -4.9372102412        0.8205371585
 H         -1.6054410151       -5.1401938524        0.8973722973
 H         -0.4998547109       -4.8267275879       -0.1333648328
 O          7.1664832066        1.8440674189        2.1482023145
 H          7.0337089409        1.7471134713        3.1095072567
 H          6.6526626925        2.6542371236        1.9042102538
 O         -2.7634235606       -1.4929299866       -1.6105282427
 H         -2.7861673430       -2.2845284281       -2.1781866103
 H         -1.7854926035       -1.2417315195       -1.6366972828
 O          6.2141336444        1.2403743563        4.6036026538
 H          6.4970661643        0.4579764294        5.0767905955
 H          5.2559672580        1.1213610117        4.4364812559
 O          2.5142830336        0.1977759761        1.7423537650
 H          2.3845894723       -0.7131680215        1.4345696895
 H          1.6195409532        0.5534262331        1.8726058267
 O          5.7278913469        4.1917757708       -1.3119634316
 H          6.3316770063        4.7162803621       -1.8362246903
 H          5.9078438880        3.2325369041       -1.5289768408
 O          1.4133975372       -2.1705415577        0.7122367768
 H          1.7218737520       -2.3592509427       -0.1946683386
 H          0.4844809202       -1.9349219823        0.6595559559
 O         -0.1002682260       -0.9856142727       -1.4658016314
 H          0.5391739158       -1.5709093426       -1.8887674562
 H          0.3342586246       -0.1407941255       -1.3222385102
 O         -2.6219405908       -6.4092430127       -1.9415850902
 H         -2.7548946612       -5.6680246373       -2.5357944709
 H         -3.1211524195       -6.2250456068       -1.1432463196
