  601
      -1018.95839595
 H         -1.0544558755        1.6634154175       -0.4259976041
 O          2.0082588198       -1.2765831946        1.4983910152
 H          2.6803443330       -1.4467385095        0.8046971385
 H          1.6116849518       -2.1253535078        1.7572106818
 O         -0.6618952456        1.0671901828       -1.1468735575
 H         -0.4069649288        0.1739265726       -0.7096885687
 H          0.1196165353        1.5810679619       -1.5613118216
 O          0.5799845803        3.4560882470       -4.9216294032
 H         -0.2341834976        3.9644461438       -4.7606184807
 H          0.5569983522        3.2008576852       -5.8646867568
 O         -0.2002361315       -1.1049774716        0.0378770221
 H         -0.9737147572       -1.2005004478        0.6293968365
 H          0.5882279445       -0.9738431798        0.6085034501
 O         -2.3004141159       -1.4111429350        1.7500614646
 H         -2.1531181720       -2.0379352330        2.4872548614
 H         -3.1160004156       -1.7216175952        1.3167076062
 O          1.4643528233        0.9496479987       -4.6440905380
 H          1.0883073314        1.8407721571       -4.5833879312
 H          0.8163304895        0.4519159112       -5.1840291580
 O         -0.6502856534       -1.0275044503       -3.2622855069
 H         -0.6883877424       -1.5976020034       -4.0450607655
 H          0.2879427919       -0.9749936020       -2.9828548767
 O         -2.9953088574        2.4682924313       -1.9248668392
 H         -3.0339442930        1.7007316526       -1.3115740874
 H         -3.9216178173        2.6487278079       -2.1585678878
 O          3.4829018577        2.0276703663       -2.7066791764
 H          3.4512645828        2.6576672341       -3.4438266353
 H          4.2369710217        2.3050439660       -2.1620402422
 O          0.1621765384        1.0173756202        1.5846932461
 H          0.0262040293        0.3529643849        2.2840543956
 H          0.1644161331        1.8999912081        1.9775170273
 O          1.8963438824       -0.6011972267       -2.5624089929
 H          1.8546923955        0.0396979770       -3.2991128614
 H          2.0040744570       -0.0769789194       -1.7477259215
 O          1.6925888797       -5.0650954631        0.3314569451
 H          1.5082796490       -4.2326069772       -0.1638036405
 H          2.6668604077       -5.1052229817        0.3741985897
 O         -6.1145350532       -5.0946060240       -0.2706420568
 H         -6.1225579879       -6.0694038866       -0.3463645819
 H         -5.2573338633       -4.8561870118       -0.6830491887
 O         -3.9267601458        3.9739630970        0.2851796233
 H         -4.7057076576        3.3792766239        0.2763689646
 H         -4.2409453964        4.8720616818        0.0815910804
 O         -2.3149945486       -1.7848559634       -1.3925881505
 H         -1.7269344861       -1.5000069596       -2.1299802152
 H         -3.2185693200       -1.8973672328       -1.7401162897
 O         -5.6057873466        3.0014799251       -2.4269909819
 H         -6.0867578594        3.5872493814       -1.8076716559
 H         -5.3225695142        3.5427011821       -3.1799462236
 O         -3.2260669739        1.6151199620        5.3058482901
 H         -3.4432162578        1.0882953422        6.0915385830
 H         -3.6578321121        2.4778408243        5.4208156872
 O          2.5606728475        4.6153207819       -7.1106786258
 H          2.0234868980        5.3936825369       -6.8927569688
 H          3.4689131099        4.9062696608       -7.1916702853
 O          2.0161305985        0.8456442233       -0.3265395422
 H          2.6298876618        1.5872542486       -0.2037799156
 H          1.3665112975        0.9064186261        0.3920942903
 O         -1.6606973860        2.6139502956        0.6420365927
 H         -2.4756056541        2.9695911019        0.2411259703
 H         -1.9178078241        1.9026066625        1.2481648528
 O         -1.9696011583       -0.8283581036        5.1372794554
 H         -1.2472874267       -0.9369882177        4.4754471126
 H         -1.6607992762       -0.1737136346        5.7823886561
 O         -5.7128140758        0.3772050241       -1.3268940184
 H         -5.2988319704        0.7506958975       -2.1236820271
 H         -5.8272884290        1.1059837866       -0.6969464369
 O          0.6581018289        5.3638720508       -2.8439266388
 H          1.4258156526        5.3233865196       -2.2630083391
 H         -0.1118001566        5.0667393876       -2.3220013137
 O          3.6254175703        2.8962552977        0.2342602877
 H          3.4517509078        3.2732062226        1.1154429980
 H          3.4884624898        3.6051152084       -0.4227610782
 O          2.2827410443       -1.8626434129        4.2194284668
 H          2.5461854511       -1.1559942282        4.8248278480
 H          2.9951778898       -2.0046073047        3.5808621118
 O          1.4165034947       -2.9095770515       -1.1153249475
 H          0.7109823458       -2.3026590601       -0.8291709916
 H          2.2605097426       -2.4159302217       -1.0307604566
 O          0.2489736728       -3.2279476182        2.0624211165
 H          0.7897750970       -3.9457114023        2.4342094187
 H         -0.1658627146       -3.5431827556        1.2423901634
 O         -1.6549758823        4.8138801867       -1.5641500086
 H         -2.1417505069        3.9784373528       -1.7057731491
 H         -2.1825609688        5.5268135166       -1.9626654412
 O         -0.9102362362       -5.7596049583        4.2421177446
 H         -0.7545270544       -5.7783664660        3.2785896012
 H         -0.0888891171       -6.0870561657        4.6420479135
 O          0.1318755264       -3.2880520809        5.2559632066
 H         -0.6036584563       -3.3244453737        4.6169461963
 H          0.9192518103       -2.9569838529        4.7989616186
 O         -4.9172736896       -2.1614994416       -1.6856133417
 H         -5.2163836289       -1.2425041278       -1.5764481189
 H         -4.8590952796       -2.5126830818       -0.7772567486
 O          2.6682216281        0.9760091210        2.7549803925
 H          2.3879264539        0.1877635211        2.2452836467
 H          1.9473838188        1.6083070582        2.7520420507
 O         -1.8069268699       -6.5676982996       -0.5418186924
 H         -1.0382874978       -6.5112217446       -1.1328203548
 H         -2.2600796248       -7.4133084872       -0.7470936177
 O         -4.7609714902       -3.6022807157        4.1182494795
 H         -4.7532657789       -4.2225091372        4.8851984333
 H         -5.0027057579       -4.1811158692        3.3570511125
 O         -4.6890053471        0.8179861087       -3.7548177696
 H         -5.1370436948        1.3688509342       -4.4211865766
 H         -3.8388805558        0.5006929432       -4.1293982206
 O          0.6736706692       -6.4611592960       -1.6331685146
 H          1.1929025682       -6.3112451556       -2.4267151102
 H          1.1576373007       -6.0159644220       -0.8928075056
 O         -1.3577383734       -4.4492635850       -2.8751790925
 H         -0.5646568242       -3.9737551237       -3.1975019259
 H         -2.1133645403       -3.9769160997       -3.2654179293
 O          0.9473385990       -3.4285821612       -3.5983286258
 H          1.2370461023       -2.7742051550       -4.2640151428
 H          1.2514288702       -3.1274330033       -2.7104485579
 O         -1.2021154068        1.6547710018       -3.7465469431
 H         -1.0770052014        0.6977005411       -3.6245116959
 H         -1.8238644492        1.9397807607       -3.0511826124
 O         -4.2757370971        4.5628206571       -4.2646830213
 H         -4.7010148544        4.5779490224       -5.1607878152
 H         -4.6551312897        5.2959876719       -3.7542757134
 O         -6.4451611563       -0.3523816750       -6.9502301517
 H         -6.8249306751       -0.6917101602       -7.7588247123
 H         -5.5024646723       -0.1424205468       -7.1358138881
 O         -2.1083914402       -3.2692785369        3.6693697272
 H         -2.9999684732       -3.3197437966        4.0521540117
 H         -2.1309705994       -3.9496207315        2.9641235804
 O         -3.4760371996       -2.9471054905       -3.8723616893
 H         -3.8577298851       -3.1621291476       -4.7415208740
 H         -4.2197433288       -2.7880333725       -3.2695615992
 O          1.8426155290       -1.7824116332       -5.4226974961
 H          2.7388482310       -1.8861310767       -5.0766749611
 H          1.9003565341       -1.1743956944       -6.1750166153
 O         -2.8139230562       -0.5776551811       -4.8831013661
 H         -2.9101595835       -1.4602493822       -4.4740345149
 H         -3.2704531635       -0.6035244081       -5.7389478467
 O          0.6160841805        2.8629000606       -7.5700432470
 H          0.0160951136        3.6334001307       -7.6879157564
 H          1.5037945413        3.2478048504       -7.6404724836
 O         -1.0932566902       -3.8331946016       -0.2308275651
 H         -1.4896187477       -2.9789872089       -0.5019457143
 H         -0.9496766843       -4.3006962282       -1.0690570138
 O          3.5941794050       -1.6046160310       -0.5413530987
 H          3.8056174559       -0.6609678904       -0.6642454747
 H          4.4390444926       -2.0783578969       -0.6857611464
 O          5.3472896022       -6.8795542462       -3.5595882624
 H          5.8143592782       -6.5552075220       -4.3318833900
 H          5.0112791320       -6.0760896648       -3.1169104217
 O         -0.0453586482       -0.9398556343        3.3837028250
 H          0.8472372324       -1.0634123048        3.7634033011
 H         -0.1739262810       -1.7515631218        2.8582902633
 O          1.0414763027        4.3937015587       -0.0051393978
 H          0.8160239484        3.9351302772        0.8150237360
 H          1.0088758021        3.7430949581       -0.7262907548
 O          4.9917708984        0.6217222059       -0.4376895138
 H          4.6457388469        1.4641122619       -0.1068755966
 H          5.4080400107        0.1395727762        0.3005282039
 O          5.8024809181        3.0409561275       -1.5285661374
 H          6.2904439233        3.6671773062       -2.0978315079
 H          6.4272799904        2.3111735533       -1.3741482319
 O          0.6570031169        3.4309787903        2.6020519713
 H          1.5577021477        3.7326255918        2.8231565283
 H          0.0110245265        3.8948654585        3.1662576077
 O         -1.3634262095        5.1921124293        1.0855853597
 H         -1.4410590306        5.2645418067        0.1102988532
 H         -1.3511304165        4.2291643645        1.2243906312
 O         -4.9086972376        3.7608418979        5.6877754558
 H         -4.7598311220        4.5145042981        5.0866443144
 H         -5.5504245071        3.1963184006        5.2310546955
 O          1.0241033772        2.6559785721       -2.0999136198
 H          1.9492466250        2.3361990049       -2.2603772187
 H          0.6694412434        2.9825425042       -2.9371018093
 O          4.5769441713       -1.9723227147       -6.5770758657
 H          4.3958420214       -1.1691615644       -6.0560215075
 H          5.4299354603       -1.8424861516       -6.9887418923
 O          6.3761102000        3.6621934299        1.0490019738
 H          6.0291486521        3.5145104345        0.1436118090
 H          6.0382286805        4.5341340742        1.3435604643
 O          0.5269387290       -5.2448164101        7.1992371486
 H          0.6125469336       -4.5599907038        6.5109052620
 H          0.8512683368       -6.0485414258        6.7773783013
 O         -1.5674160801        3.7295976133        6.6195997315
 H         -0.7834604109        3.6543466625        7.1750634883
 H         -2.2956781475        3.3175012012        7.1387605176
 O         -3.0410271337        0.4873250843       -0.1786227298
 H         -3.8050319945        0.2591807058        0.3676434512
 H         -2.7354294250       -0.3398779847       -0.5933966238
 O          3.9962501104        0.2450299358       -5.0499353162
 H          3.0737901935        0.5188926560       -4.8769567159
 H          4.5126853293        0.3978819460       -4.2382573734
 O         -0.8762890522        5.0775214783       -7.4910559753
 H         -0.2372911818        5.7985395173       -7.4621334402
 H         -1.2337400753        5.0181698184       -6.5758668396
 O          3.8974862216       -2.2382251106       -3.5249617295
 H          4.7534887770       -1.8537962165       -3.7543175344
 H          3.3553167066       -1.5779351142       -3.0551299168
 O          1.5217587582        0.1165373250        5.8797592842
 H          0.8449667819        0.6587610072        5.4423854772
 H          1.0378347431       -0.5662986888        6.3934901923
 O          1.4052178139       -6.9841136010        5.1641691809
 H          2.3607827970       -6.8989848947        5.2020934011
 H          1.2076248045       -7.6184325244        4.4411944278
 O          3.2422251925       -4.3214195184       -6.1373719637
 H          2.3842534951       -4.1315603279       -6.5464066831
 H          3.7413472200       -3.4978654649       -6.2862554670
 O          4.0693347666       -4.6400202955       -2.4289989169
 H          4.0947559217       -3.7408649999       -2.8262961698
 H          3.2892452344       -5.0618302965       -2.8148891045
 O          5.2406071407        1.6917307140        2.4816192016
 H          4.2744038798        1.7321857377        2.4643169974
 H          5.5806332074        2.4087364692        1.9145098730
 O         -2.0404660807       -4.8275986906        6.6028203708
 H         -1.2284492224       -5.0389536307        7.1020208201
 H         -1.7599839564       -4.8977149146        5.6752874533
 O         -3.6781722972        2.8812797893        8.0005843432
 H         -3.8738476927        1.9422890845        8.1161417388
 H         -4.3510107686        3.2277031182        7.3964756344
 O         -0.5751645544       -6.5897171196       -4.3180349825
 H         -0.8656238839       -5.9044279420       -3.6749068484
 H          0.3738385445       -6.4510029483       -4.4369236736
 O          2.2162153070       -4.6532779672        3.2067339224
 H          2.8763989498       -4.0186521913        2.8729961250
 H          2.2477844311       -4.5578469079        4.1782190778
 O         -2.3062653229       -1.8228243241       -7.5457565317
 H         -3.1031126484       -2.3600756378       -7.5535679375
 H         -1.8355536152       -2.0695337096       -6.7146285247
 O         -7.7695412538       -3.9004740884       -2.2023323315
 H         -7.8591254932       -2.9403598097       -2.1103835599
 H         -7.2264883471       -4.2245322372       -1.4671880063
 O         -2.3512254545        1.0269976045        2.8085872595
 H         -2.3799427461        0.1443333494        2.3695755597
 H         -2.7737026324        0.9332411131        3.6758539654
 O          3.0477542226        4.1763567495       -4.2487034625
 H          3.6929282720        4.0166905334       -4.9760116213
 H          2.1451918322        3.9995263564       -4.5913897290
 O         -7.1075595115       -2.8641442302        1.3995690907
 H         -7.2874235179       -2.8193688686        2.3535341719
 H         -7.3221324432       -3.7474735897        1.0895418148
 O         -5.8396743848        2.2443184368        0.7041978215
 H         -5.4628935568        1.4948158876        1.2034457481
 H         -6.6579123686        2.4928581344        1.1646786509
 O         -4.4240368064       -0.9059865169        4.1140976762
 H         -4.5884088625       -1.8625288918        4.0722759121
 H         -3.5170572166       -0.8247903510        4.4810732425
 O         -0.4997503256        0.0402117778       -6.1786596827
 H         -1.2606738152       -0.1763923400       -5.6177722164
 H         -0.8568333215        0.3945663722       -7.0037915855
 O         -1.3873707180       -9.0676103661        1.1837733548
 H         -0.7676328449       -9.0455213603        1.9289025338
 H         -0.8350133212       -9.0918352391        0.3889332323
 O         -1.3470691411        1.2073036014       -8.5812226227
 H         -0.5383906048        1.7228644379       -8.4447018764
 H         -2.0580504752        1.8708700378       -8.5926658160
 O         -4.3639779538       -3.4855414567       -6.4578377901
 H         -5.2120095093       -3.8594315881       -6.1959350603
 H         -3.7349875744       -4.2206358643       -6.5015800170
 O          1.9581602689        0.0655420213       -7.5597197130
 H          1.4584322272        0.8301265708       -7.2554951093
 H          1.3244023877       -0.4797227394       -8.0537539655
 O         -7.8757622693        1.6335549584       -3.2213320857
 H         -7.0319786305        1.9610548833       -2.8528779919
 H         -7.9195859370        0.6745659084       -3.0390966799
 O         -3.9160410916        0.3684957366       -7.1765386436
 H         -3.1983622814        0.0692393366       -7.7478038424
 H         -3.5967138292        1.1530552932       -6.6901138768
 O         -1.0399749767       -2.8191884338       -5.4289093471
 H         -0.1879073293       -2.9449530260       -5.8728656335
 H         -1.5092264035       -3.6754985546       -5.4765995093
 O         -6.4188999792        1.9849273399       -5.4961318934
 H         -6.5966901007        1.2347048007       -6.0833609908
 H         -7.1263129040        1.9765922876       -4.8224042465
 O         -2.3759001952       -5.1739975896       -5.7146374111
 H         -3.0304793110       -5.3665682245       -5.0034459010
 H         -1.6624068022       -5.8113588552       -5.5497882362
 O         -5.3041365360        4.2289429834       -6.6417311461
 H         -4.6414463711        3.9566174604       -7.2979764331
 H         -5.8003577393        3.4297023496       -6.3968834969
 O         -2.8987874435        2.3186818177       -5.5845528356
 H         -3.4419760884        2.8909187647       -5.0355141316
 H         -2.1464188637        2.0292093496       -4.9975908711
 O          2.0620722942       -5.6676536351       -4.1058178751
 H          1.5937215212       -4.8017953481       -3.9154968946
 H          2.6050448039       -5.4285551799       -4.8783461069
 O         -3.6785380511       -4.8392491077       -1.3309427894
 H         -3.0197663942       -5.4905612327       -1.0019971591
 H         -3.2349682665       -3.9870658371       -1.3556532936
 O         -5.3283993747       -7.6415741493       -0.0968781715
 H         -4.7426192124       -7.6111977573        0.6743237849
 H         -4.7878281644       -8.0589761556       -0.7800759495
 O         -2.9920728063       -7.3525790667        4.5694604236
 H         -2.2038565481       -6.7550119995        4.4869423813
 H         -2.6802452101       -8.1592348303        4.9783332630
 O         -7.5830000643       -0.2565406919        0.6879691723
 H         -7.7909485083       -0.0425593227        1.6206770189
 H         -7.7296628124       -1.2040354234        0.5912292229
 O         -2.7841654600       -4.7601329621        1.6066982949
 H         -2.1337423368       -4.5803138780        0.8983378923
 H         -2.9604212241       -5.7190217280        1.6137124070
 O         -5.5437047492       -5.3371043984        2.3259624857
 H         -5.0222770261       -6.1414077176        2.3697194707
 H         -5.7693484277       -5.2190785548        1.3773669966
 O         -2.8395565998       -8.1283005559       -3.9092332268
 H         -3.4610214836       -7.3835350381       -3.9782577949
 H         -1.9628494631       -7.7583843980       -4.0946492893
 O          6.8371402452        2.3006215176       -4.4825411614
 H          6.3942504204        1.6989227178       -3.8449431510
 H          7.3178385635        2.9622181610       -3.9675726545
 O          4.2389479123       -4.3488893498        0.2498140120
 H          4.9606482155       -4.9090777315        0.5850388917
 H          4.2420943269       -4.4227132024       -0.7265007946
 O          2.4614887866       -8.5808385548        0.9605271611
 H          1.7688019547       -8.9671740298        0.4011138433
 H          2.9065224098       -7.9447237671        0.3467098117
 O         -8.6231503607        2.0155457504       -0.5795761943
 H         -8.6790067137        1.9272353866       -1.5452449238
 H         -8.2463010305        1.1735214009       -0.2660139777
 O          5.9479164848       -4.4207302018       -4.8208588627
 H          5.0682625060       -4.4873607190       -5.2065091654
 H          6.1617789733       -3.4708815623       -4.8377909829
 O          6.0078061718       -2.4924109664       -0.9719804995
 H          6.6141820020       -1.8584524382       -1.3994710352
 H          6.4073179858       -2.7167190383       -0.1086881837
 O         -6.2672303179       -4.1191170890       -4.4114591263
 H         -6.1354033473       -3.1561608367       -4.4267591800
 H         -6.9181161961       -4.2382230437       -3.6889464522
 O          0.7711439746       -3.6756767478       -7.3612252353
 H          0.7660297361       -2.8574017113       -7.8786137578
 H          0.3551740185       -4.3449542381       -7.9046635667
 O         -0.6278391631        7.2998659251       -4.0775619765
 H         -0.0624492751        6.6573316130       -3.5822984646
 H         -1.4130534592        7.4449987741       -3.5281664814
 O          4.1501599798        2.4643770137        6.0972333699
 H          3.2425168837        2.7248071673        5.8394328885
 H          4.7168089126        3.0555219071        5.5585237459
 O         -0.4224889663        1.7010570368        4.6803088322
 H         -1.0887071535        1.9742831358        5.3257874201
 H         -0.9248788133        1.4339767685        3.8914842126
 O          6.2687874412       -6.8044213824       -0.8983497877
 H          6.4218397857       -7.5137550424       -1.5254230294
 H          6.5516225068       -5.9851054092       -1.3774244927
 O          3.2503370597        4.8953950903       -1.5772536274
 H          4.0711658436        5.4330733774       -1.5082302392
 H          3.2486256191        4.5479578526       -2.4816810878
 O         -1.1535252908        0.5919161610        7.3733229168
 H         -2.0062610059        0.5774943035        7.8185971438
 H         -0.7057735784       -0.2522478918        7.5757747369
 O          6.9753815577        0.3599185050        4.3671772111
 H          6.0033688958        0.3685278403        4.2293567672
 H          7.0567153714        0.3763997414        5.3340682297
 O         -1.3701695267        4.5756950696        4.0016709538
 H         -2.2063994257        4.2727383578        3.5824199735
 H         -1.3960671151        4.2399700690        4.9116716552
 O          3.7991684524        8.5626251594       -0.9484400762
 H          3.2944672629        8.6830542535       -0.1383169897
 H          3.1517070000        8.6232801783       -1.6652608655
 O          4.1939025971       -2.8727702083        2.4451723400
 H          4.8735126563       -3.2985870893        3.0152965348
 H          4.2406304574       -3.3004415961        1.5635938935
 O          4.3235780085        6.6341310152        4.2505294655
 H          4.3569934548        7.4209251369        4.7923013370
 H          3.4093636244        6.2760153336        4.3256315495
 O          5.9272873332       -3.7742376047        4.2593991829
 H          6.7768064809       -3.3600198172        4.0523609770
 H          5.5449605696       -3.2137434195        4.9645762915
 O          4.2988457307        0.2071103919        4.6739770213
 H          4.2741801868        0.9766896364        5.2777332116
 H          3.6841303382        0.4471748746        3.9537754841
 O         -2.8692972962        7.0604691532       -2.5298786055
 H         -3.8213455012        7.0553904697       -2.6624680406
 H         -2.7028759507        7.5165335087       -1.6839348520
 O          1.0615474828        6.8276953902       -6.2957398954
 H          1.8639699250        7.0036351831       -5.7640802753
 H          0.3393485990        7.0814043432       -5.7059967005
 O         -3.5348452899        3.4879447758        2.8414467328
 H         -3.6888630792        3.8070907611        1.9213808630
 H         -3.0877211601        2.6294727526        2.7539435587
 O          5.6968940893        0.4204323987       -2.9647050334
 H          5.3856537786        0.5273375524       -2.0433745922
 H          6.4126070732       -0.2232509923       -2.9384988560
 O          1.6085083007        3.2388871360        5.5376629685
 H          0.9851417710        2.7309381099        4.9883154165
 H          1.2684188426        3.1316301963        6.4516572673
 O          7.5404061190        4.4929807052       -2.9558552179
 H          7.1193426140        5.1904948192       -3.4734426508
 H          7.8590137219        4.9203780425       -2.1295121001
 O          0.5990128840        6.4850743146        2.3048287848
 H          0.8929463702        6.1191145559        3.1611813473
 H         -0.0825177680        5.8927225964        1.9136701452
 O          0.5192735778        7.0069881834       -0.5616848095
 H          0.6541106985        6.0639155746       -0.3326005862
 H          0.9956680902        7.5513751905        0.0882524068
 O          5.3751973462        6.4613397362       -1.5132921763
 H          4.9245638575        7.2984484750       -1.2794405832
 H          5.5750062321        6.4976614157       -2.4605945711
 O          6.5550531839       -1.7789046959       -4.4803154530
 H          6.6578931396       -1.1081630823       -5.1857035598
 H          7.3363636408       -1.7230332659       -3.9208533934
 O          6.2495130727        0.4921737068        7.0120641488
 H          5.6859424929        1.2707863337        6.9750543240
 H          5.8311819212       -0.1308652050        7.6153281429
 O          4.6046918953       -6.0680084653        5.1768215679
 H          4.3854949367       -6.5143731232        4.3415431535
 H          5.3029558358       -5.4409772210        4.9362950182
 O          3.7427371123       -6.8140961681        2.7180804802
 H          3.3598624717       -7.5343498329        2.2018113775
 H          3.0718442649       -6.0988006002        2.7532677245
 O         -5.9910899206       -1.3955276447       -4.4557715341
 H         -5.4637106316       -0.6339074096       -4.1196133316
 H         -6.2766313169       -1.1427924320       -5.3461310803
 O         -4.5715172374       -5.4922048368        5.9681914065
 H         -3.7400887289       -5.2814959887        6.4292557875
 H         -4.3481672839       -6.2669653163        5.4324353002
 O         -0.2795615941       -6.1912174520        1.6727043960
 H          0.4963733282       -5.7757505833        1.2464885749
 H         -0.8900120255       -6.4214752661        0.9456018975
 O         -4.4447090698       -2.7963309869        0.8743583409
 H         -3.9954780552       -3.6202157724        1.1507507802
 H         -5.3709489995       -2.8419838544        1.1677191776
 O          7.2939977697       -3.3456580195        1.2117435566
 H          7.4586361643       -2.8116391903        2.0058842445
 H          6.9615277032       -4.2092955932        1.4988381385
 O          2.8694283248       -4.1455809155        5.8074674426
 H          3.4841244874       -4.9075352996        5.7712070520
 H          3.4360329048       -3.3541617359        5.7050022681
 O         -2.9996957056        3.3672747856       -8.0223025372
 H         -2.8404787754        3.0609887481       -7.1034431332
 H         -2.4079653597        4.1173995554       -8.1505025037
 O          7.9710191290        1.4230959022       -0.9345789716
 H          8.6912248097        2.0403463904       -1.0631373129
 H          8.0529711816        1.0747590459       -0.0158557245
 O          7.9434124816       -1.0376758329       -2.1560533592
 H          8.1198135150       -0.1904077847       -1.7126447208
 H          8.5351428926       -1.7177474961       -1.7595960254
 O          6.0400065978       -5.8048921178        1.6177125867
 H          6.3132050380       -6.3820345093        0.8900915293
 H          5.3116056104       -6.2572846594        2.0835473237
 O          7.9063137407       -2.0159952114        3.5461541516
 H          7.5332954150       -1.1405181015        3.8083978609
 H          8.8581210519       -1.9208364731        3.5560083184
 O          3.5307624462       -6.9498472269       -0.7914067455
 H          4.5017268015       -6.8850888963       -0.7992698394
 H          3.2883535445       -7.4162513806       -1.6149659422
 O          4.6399159737       -2.1218739521        5.8950904774
 H          4.5858848016       -1.2714442628        5.4157021857
 H          4.6169906963       -1.8826478937        6.8432726861
 O         -4.1944597302       -5.7342477150       -3.8363417958
 H         -3.9953857659       -5.4400791188       -2.9248268403
 H         -5.0199581566       -5.2659976808       -4.0761238621
 O         -1.9641863185        7.9661326486       -0.1951292548
 H         -1.8481348741        8.5704151654        0.5416037721
 H         -1.0815913954        7.5741269702       -0.3545708405
 O         -7.1859668356        4.4014855982       -0.8025783565
 H         -6.9375985654        4.6520212264        0.0950567004
 H         -7.7903798727        3.6444081811       -0.7091105525
 O         -3.0987756777       -8.7167822104       -1.3831265633
 H         -3.0120903976       -8.5892963007       -2.3650188686
 H         -2.7866439795       -9.5952226167       -1.1698788994
 O         -4.8090593240        5.8898003950        3.9924102410
 H         -5.0830809045        6.6873991693        4.4442636506
 H         -4.1070789541        6.1645648783        3.3514620688
 O          0.2201988690       -1.6910416657        7.3336090368
 H          0.0042728375       -2.3049841838        6.5930249423
 H          0.9159999980       -2.1561213360        7.8378994219
 O         -1.6811470557        4.9592337836       -4.9514001205
 H         -1.4042805091        5.8515250704       -4.6735627069
 H         -2.5963882481        4.8287541146       -4.6393314561
 O          0.0143694447       -1.4202499948       -8.8790821497
 H         -0.1682086759       -0.7666254399       -9.5563679693
 H         -0.8366287932       -1.5235092778       -8.4049268747
 O          2.2183046144       -3.2298269102        8.2754583661
 H          2.4525268358       -3.6025528912        7.3939349615
 H          1.7734806751       -3.9516985955        8.7255738535
 O          1.6518136145        8.2310129654       -2.6545973251
 H          1.2143681980        7.7061367457       -1.9478952141
 H          0.9438306138        8.5425109912       -3.2260134437
 O          4.4510562562        1.4515729339       -7.3310151357
 H          3.7493866228        1.0925618456       -7.8829205132
 H          4.2739787293        1.0424886677       -6.4505032121
 O          5.6557489275        6.0865129695       -4.3165403327
 H          4.8261271450        6.5839949628       -4.4454510130
 H          5.5951793008        5.3566083300       -4.9460511298
 O          5.0499595340        3.6933066247       -5.9030639012
 H          4.7868237164        3.0575447280       -6.5928884174
 H          5.7309812166        3.2042567615       -5.3890167469
 O          6.8099989484        0.2000786847       -6.3231641652
 H          7.0448907803        0.9441333780       -5.7492249898
 H          6.1163541278        0.5506334821       -6.9011138922
 O         -3.0828355445        6.0340753792        6.7399279456
 H         -3.9554325612        5.7134903983        6.9696145187
 H         -2.5032605290        5.2502481965        6.7423296981
 O          9.0107853300       -3.1774511352       -1.0066633108
 H          8.5554338293       -3.8451875406       -1.5442656357
 H          8.5998674290       -3.2409799808       -0.1303834114
 O          2.9805492772       -8.1239897805       -3.1679074819
 H          2.5188606318       -7.4365389335       -3.6651580499
 H          3.9130395781       -8.0016898183       -3.4159120858
 O         -7.7411967741        0.3001465330        3.2980745474
 H         -6.9815758314        0.8581278831        3.5424749312
 H         -7.6000643245       -0.5569602785        3.7240540836
 O         -4.8870932561        6.4816475634        0.1386054957
 H         -4.1901486870        6.8523695739        0.7127852499
 H         -5.6090520304        6.2299087622        0.7308538991
 O         -8.1946536946        2.8476785702        2.0036626621
 H         -8.3348287853        2.0943978179        2.5880592623
 H         -8.6939205523        2.6684402617        1.1938572905
 O         -6.4778177207        5.0654774204        1.9157717706
 H         -7.1393306406        4.4114564132        2.1770358270
 H         -5.9311228842        5.2417663125        2.6993999518
 O         -5.5770240696        6.2075232704       -2.4731078520
 H         -5.3374236448        6.3268756491       -1.5358897197
 H         -6.4838318004        5.8910245584       -2.4491488802
 O         -4.9980962980       -0.0909851000        1.6004759255
 H         -5.8353138536       -0.4252852340        1.2398051986
 H         -4.8687163329       -0.4407782149        2.4969050236
 O          5.3471021589        4.0694771973        4.3837195315
 H          6.2354084467        3.7446313289        4.0922324905
 H          5.3830702461        5.0265566386        4.4905416621
 O          2.9396975894        6.1134398075        1.0305160075
 H          2.7711958633        5.6485348337        0.1985655646
 H          2.0636729428        6.2674993642        1.4336289159
 O          2.8206600190        1.0453352367        7.9982818983
 H          2.3678371565        0.6861854334        7.1965033286
 H          3.4717169218        1.6644000123        7.6443096614
 O         -7.7523332818       -1.0191937191       -2.4301383989
 H         -7.1406081839       -0.6331461146       -1.7782482127
 H         -7.1935352762       -1.2795756049       -3.1877600718
 O          7.5842951323        2.9558578616        3.5325062867
 H          7.3362071601        2.0432278720        3.7697152947
 H          7.3952118957        3.0762322798        2.5924393315
 O          6.9809376952       -4.6295201124       -2.2528198883
 H          6.4675160109       -3.9007868607       -1.8426544421
 H          6.6948680228       -4.6489072568       -3.1818519769
 O          1.7018204463        8.8205092578        1.1608250068
 H          2.0966066245        8.3542448179        1.9024434374
 H          0.9016448161        9.2441514671        1.4898321518
 O         -5.5981005677        1.9389428543        3.7507523830
 H         -5.0287449115        2.5824555196        3.2864466090
 H         -4.9935484741        1.2928336180        4.1349387773
 O          8.2310112737        0.3277899793        1.4684677925
 H          8.2944064191        0.8508359847        2.2699776599
 H          7.4411569004       -0.2349994223        1.5710123359
 O          1.8076871427        5.7159262602        4.5617465148
 H          1.7840958573        4.8048742523        4.9220898453
 H          1.3894975811        6.2903916599        5.2335515407
 O          3.0724412335        6.8610290882       -4.4966413753
 H          2.9301067807        5.9090516365       -4.3097123832
 H          2.6362748146        7.3541287551       -3.7761889201
 O          0.4842935957       -9.0154549844       -0.9249890469
 H          0.5649110152       -8.0771122292       -1.2206105572
 H          0.8287720075       -9.5429210574       -1.6457284872
 O          0.5930497735        2.6011302894        7.9298689363
 H          1.3893561687        2.1675832144        8.2829630163
 H         -0.0377084164        1.8693396287        7.7751560898
 O          0.6564162601       -8.3123534557        2.9569680335
 H          1.4041925890       -8.5724402128        2.3920294076
 H          0.3045570204       -7.5015615841        2.5203262771
 O         -3.9479622652        0.1493062803        7.5558603643
 H         -4.8533461882        0.0919589085        7.1581340856
 H         -3.6625310930       -0.7774325697        7.5983608871
 O         -5.8391103682       -2.9434148971        6.6771113061
 H         -5.9227682817       -3.8854879688        6.8361939759
 H         -4.8870268796       -2.7492489105        6.7911984076
 O         -0.9957896342        8.6330056686        2.4587177071
 H         -0.4002786091        7.8525550687        2.3890667107
 H         -1.2167470348        8.6802342527        3.3939548085
 O         -3.3841019237       -7.3770347207        1.8961315399
 H         -3.3245959829       -7.4760005564        2.8643317130
 H         -2.7127294313       -7.9908402057        1.5323100365
 O         -7.2195181837       -2.4058393691        4.1121227524
 H         -6.3503890829       -2.8249273658        4.2900949667
 H         -7.7799772651       -2.6522880383        4.8476587463
 O         -6.1164190323       -0.2605860832        6.1350273424
 H         -5.6024143099       -0.4602226378        5.3274388813
 H         -6.3769262973       -1.1275513486        6.4707283495
 O          3.2650445006        4.0016409058        2.6634951812
 H          4.0106868893        3.9644834551        3.2937837338
 H          3.2956527535        4.8778821983        2.2322939465
 O          0.4465433351        7.2878718843        6.2144633130
 H          0.1549787409        7.1661374429        7.1175159542
 H         -0.3692675539        7.3528669462        5.6624684517
 O         -3.1407738534        6.7853803250        2.1614795705
 H         -2.5841493451        7.5546301256        2.3481362453
 H         -2.5227790775        6.1220630893        1.7697149237
 O          4.2302547530       -1.2473030229        8.3820179564
 H          3.6965841065       -0.4271832510        8.3819562643
 H          3.6168394757       -1.9537517348        8.6272736508
 O          5.7774035244       -0.7479237482        1.7211837788
 H          5.1624731058       -1.4443269473        2.0076005981
 H          5.5294344241        0.0883071654        2.1740875994
 O         -1.7386002002        7.1669490660        4.7066971949
 H         -2.3699090468        6.9754552960        5.4199984483
 H         -1.5671146000        6.2908670026        4.2999189534
 O         -3.1672645062       -2.4140039078        6.9140901460
 H         -2.6911412790       -1.9550246317        6.1942079192
 H         -2.7352679543       -3.2862789224        6.9729708847
 O          7.8395562459        5.5718930597       -0.5516905874
 H          7.6674462945        4.9566256083        0.1714143414
 H          7.0193982560        6.0818894059       -0.6563745522
 O          5.5351133519        6.0873259992        1.7594996022
 H          4.7707371390        6.3111115589        1.2107994174
 H          5.2900906389        6.3523185397        2.6548660414
