  94
       -149.93268984
 H         -3.0287721106        2.3759290957        1.0728785931
 C         -1.9716755741        2.1644798929        1.2310029445
 C         -0.2732730928        0.5027123719        0.9222270250
 C          0.0801741860        0.5891930924        2.4070751372
 C         -1.6417987462        2.2503690160        2.7257924796
 H          0.3480497444        1.2050815516        0.3616736770
 H         -0.4839178899       -0.1755187224        2.9587271848
 H         -2.2661828703        1.5133103401        3.2638104241
 H         -1.3757904988        2.9081419742        0.6983635846
 H         -0.0992019433       -0.5122508620        0.5685715761
 H          1.1441110840        0.3995787899        2.5515026202
 N         -1.6667158329        0.8519117725        0.6666472347
 H         -2.2660877118        0.1632360668        1.1218546635
 N         -0.2215856600        1.9360723822        2.8816957569
 H          0.0495941468        2.0310487837        3.8556902195
 C         -1.9250772997        3.6456610989        3.2658660071
 H         -2.9688626534        3.9015550107        3.1073618190
 H         -1.3045397347        4.3770314373        2.7546191878
 H         -1.7121037511        3.6951344569        4.3317584076
 O         -1.9491382723       -2.9080085490        3.3044065168
 H         -1.0388661637       -2.6380547691        3.5266045496
 H         -1.8522220330       -3.5813485297        2.6043644489
 O         -4.8692974920        2.8256142666       -0.2615389980
 H         -5.7351941114        3.2101075017       -0.4008818520
 H         -4.8823938422        1.9480068021       -0.6843428188
 O          2.6916957171       -2.3308311805        2.0828580135
 H          2.6591576966       -1.5683095436        1.4843633537
 H          2.6636264077       -3.1087430599        1.5049213932
 O          0.6647638515       -2.2854098324        3.8582572877
 H          0.9983413671       -2.8204714726        4.5790372985
 H          1.3732661404       -2.2815810775        3.1773497553
 O         -3.3800414255       -1.0267451731        2.2087762170
 H         -2.8163891369       -1.7375199263        2.6278788111
 H         -4.1220775078       -0.9012439646        2.8003994427
 O          0.3632721828       -2.7867269558       -0.2723858601
 H          1.1094688163       -3.3974353829       -0.1329808074
 H          0.7118592820       -2.0907834192       -0.8562560778
 O          2.7948512174       -0.3304210568        0.1609277099
 H          2.2055790763       -0.4150215467       -0.6004115825
 H          2.9030830368        0.6290443167        0.3325829090
 O         -4.2465700913       -1.7300675703       -0.2607817390
 H         -3.4980639055       -2.1859627160       -0.6951050278
 H         -3.9386003258       -1.5013574764        0.6392438151
 O         -1.2351883265       -0.9543335481       -3.3361460710
 H         -1.3238550202       -0.7059513785       -4.2562669868
 H         -1.6301576368       -0.2117865316       -2.7990422289
 O         -2.2120708217        1.0074529278       -1.9099199911
 H         -1.9613254834        0.9211453252       -0.9312531608
 H         -3.1727981527        0.8323005894       -1.9134751971
 O         -2.1056368343       -2.8720259671       -1.4913920613
 H         -1.9422408846       -2.3515808417       -2.2883598274
 H         -1.2548890549       -2.8733132651       -1.0184338528
 O          3.3572288054        2.1902274383       -2.2258816823
 H          2.4377356859        2.2665918844       -2.5026590934
 H          3.3510723698        2.3131831876       -1.2602539464
 O          5.2281800045       -1.1771137417       -0.4698616995
 H          5.7292889042       -1.2966144264        0.3369390552
 H          4.3263362520       -0.8762162643       -0.1982893083
 O          4.8389223908        0.0682352448       -2.9641612910
 H          5.2054161617       -0.2533624217       -2.1286447599
 H          4.3475379546        0.8915189220       -2.7510073154
 O          2.5873367659       -4.2894552855        0.0939581259
 H          2.6447196417       -5.2437493284        0.1329928829
 H          3.2324356718       -3.9919281243       -0.6032181722
 O          0.5315574687        1.8050900191       -2.3306754710
 H          0.8362071415        0.8969317061       -2.1612713796
 H         -0.4291878970        1.7438465800       -2.3790632980
 O          4.2593490724       -3.4173846651       -1.7278430976
 H          3.8077721127       -2.9918497979       -2.4749673591
 H          4.7553230572       -2.6972336682       -1.2969321507
 O          1.3441124426        3.7183457913        1.4870951568
 H          0.8382577181        4.0181500347        0.7077074498
 H          0.7470120645        3.1157234065        1.9903975836
 O          3.1384405555       -1.7483371810       -3.6366405500
 H          3.8224317843       -1.0387098557       -3.4219710260
 H          3.1473227820       -1.8469575170       -4.5883327683
 O         -0.0344583238        4.1345150937       -0.8136472601
 H         -0.9584364389        4.2362578308       -1.1051651488
 H          0.3421502642        3.4589513874       -1.3936173809
 O         -4.8210974490        0.3972542143       -1.6022645524
 H         -5.4825421643        0.1254082670       -2.2386510508
 H         -4.6300690719       -0.4174648187       -1.0407880655
 O          1.1521969707       -0.8757819431       -2.0861708549
 H          0.3141605217       -1.0029726673       -2.5776039142
 H          1.8610536479       -1.2141411102       -2.6748379759
 O         -2.6208240449        3.7744023103       -1.6859558842
 H         -2.4498093882        2.8520841999       -1.9325560438
 H         -3.3724156833        3.7225056642       -1.0782705411
 O          3.2313600547        2.2778427649        0.5185286641
 H          4.0284224705        2.5739949712        0.9575533070
 H          2.4850888500        2.8524891784        0.8906919805
 O         -1.5167214858       -4.4232306461        1.0853332011
 H         -0.7849368428       -3.8786704584        0.7641001585
 H         -2.2004113386       -4.3637824888        0.4129100630
