  94
       -149.93268984
 H         -3.0287721106        2.3759290957        1.0728785931
 C         -1.9716755741        2.1644798929        1.2310029445
 C         -0.2732730928        0.5027123719        0.9222270250
 C          0.0801741860        0.5891930924        2.4070751372
 C         -1.6417987462        2.2503690160        2.7257924796
 H          0.3480497444        1.2050815516        0.3616736770
 H         -0.4839178899       -0.1755187224        2.9587271848
 H         -2.2661828703        1.5133103401        3.2638104241
 H         -1.3757904988        2.9081419742        0.6983635846
 H         -0.0992019433       -0.5122508620        0.5685715761
 H          1.1441110840        0.3995787899        2.5515026202
 N         -1.6667158329        0.8519117725        0.6666472347
 H         -2.2660877118        0.1632360668        1.1218546635
 N         -0.2215856600        1.9360723822        2.8816957569
 H          0.0495941468        2.0310487837        3.8556902195
 C         -1.9250772997        3.6456610989        3.2658660071
 H         -2.9688626534        3.9015550107        3.1073618190
 H         -1.3045397347        4.3770314373        2.7546191878
 H         -1.7121037511        3.6951344569        4.3317584076
 O         -1.9491382723       -2.9080085490        3.3044065168
 H         -1.0388661637       -2.6380547691        3.5266045496
 H         -1.8522220330       -3.5813485297        2.6043644489
 O         -4.8692974920        2.8256142666       -0.2615389980
 H         -5.7351941114        3.2101075017       -0.4008818520
 H         -4.8823938422        1.9480068021       -0.6843428188
 O          2.6916957171       -2.3308311805        2.0828580135
 H          2.6591576966       -1.5683095436        1.4843633537
 H          2.6636264077       -3.1087430599        1.5049213932
 O          0.6647638515       -2.2854098324        3.8582572877
 H          0.9983413671       -2.8204714726        4.5790372985
 H          1.3732661404       -2.2815810775        3.1773497553
 O         -3.3800414255       -1.0267451731        2.2087762170
 H         -2.8163891369       -1.7375199263        2.6278788111
 H         -4.1220775078       -0.9012439646        2.8003994427
 O          0.3632721828       -2.7867269558       -0.2723858601
 H          1.1094688163       -3.3974353829       -0.1329808074
 H          0.7118592820       -2.0907834192       -0.8562560778
 O          2.7948512174       -0.3304210568        0.1609277099
 H          2.2055790763       -0.4150215467       -0.6004115825
 H          2.9030830368        0.6290443167        0.3325829090
 O         -4.2465700913       -1.7300675703       -0.2607817390
 H         -3.4980639055       -2.1859627160       -0.6951050278
 H         -3.9386003258       -1.5013574764        0.6392438151
 O         -1.2351883265       -0.9543335481       -3.3361460710
 H         -1.3238550202       -0.7059513785       -4.2562669868
 H         -1.6301576368       -0.2117865316       -2.7990422289
 O         -2.2120708217        1.0074529278       -1.9099199911
 H         -1.9613254834        0.9211453252       -0.9312531608
 H         -3.1727981527        0.8323005894       -1.9134751971
 O         -2.1056368343       -2.8720259671       -1.4913920613
 H         -1.9422408846       -2.3515808417       -2.2883598274
 H         -1.2548890549       -2.8733132651       -1.0184338528
 O          3.3572288054        2.1902274383       -2.2258816823
 H          2.4377356859        2.2665918844       -2.5026590934
 H          3.3510723698        2.3131831876       -1.2602539464
 O          5.2281800045       -1.1771137417       -0.4698616995
 H          5.7292889042       -1.2966144264        0.3369390552
 H          4.3263362520       -0.8762162643       -0.1982893083
 O          4.8389223908        0.0682352448       -2.9641612910
 H          5.2054161617       -0.2533624217       -2.1286447599
 H          4.3475379546        0.8915189220       -2.7510073154
 O          2.5873367659       -4.2894552855        0.0939581259
 H          2.6447196417       -5.2437493284        0.1329928829
 H          3.2324356718       -3.9919281243       -0.6032181722
 O          0.5315574687        1.8050900191       -2.3306754710
 H          0.8362071415        0.8969317061       -2.1612713796
 H         -0.4291878970        1.7438465800       -2.3790632980
 O          4.2593490724       -3.4173846651       -1.7278430976
 H          3.8077721127       -2.9918497979       -2.4749673591
 H          4.7553230572       -2.6972336682       -1.2969321507
 O          1.3441124426        3.7183457913        1.4870951568
 H          0.8382577181        4.0181500347        0.7077074498
 H          0.7470120645        3.1157234065        1.9903975836
 O          3.1384405555       -1.7483371810       -3.6366405500
 H          3.8224317843       -1.0387098557       -3.4219710260
 H          3.1473227820       -1.8469575170       -4.5883327683
 O         -0.0344583238        4.1345150937       -0.8136472601
 H         -0.9584364389        4.2362578308       -1.1051651488
 H          0.3421502642        3.4589513874       -1.3936173809
 O         -4.8210974490        0.3972542143       -1.6022645524
 H         -5.4825421643        0.1254082670       -2.2386510508
 H         -4.6300690719       -0.4174648187       -1.0407880655
 O          1.1521969707       -0.8757819431       -2.0861708549
 H          0.3141605217       -1.0029726673       -2.5776039142
 H          1.8610536479       -1.2141411102       -2.6748379759
 O         -2.6208240449        3.7744023103       -1.6859558842
 H         -2.4498093882        2.8520841999       -1.9325560438
 H         -3.3724156833        3.7225056642       -1.0782705411
 O          3.2313600547        2.2778427649        0.5185286641
 H          4.0284224705        2.5739949712        0.9575533070
 H          2.4850888500        2.8524891784        0.8906919805
 O         -1.5167214858       -4.4232306461        1.0853332011
 H         -0.7849368428       -3.8786704584        0.7641001585
 H         -2.2004113386       -4.3637824888        0.4129100630
  94
       -149.93227943
 H         -0.6188795614       -0.9939729933       -0.2888612291
 C         -0.1736436401       -0.4466676320       -1.1173723862
 C          0.8854559390       -0.6949070969       -3.2367356158
 C          2.0684330688        0.1421705656       -2.7502000449
 C          0.9722560160        0.4165712458       -0.5977171372
 H          0.1282932050       -0.0434283865       -3.6831613651
 H          2.8402357550       -0.5398700951       -2.3607545647
 H          1.6925065207       -0.2325802313       -0.0839153157
 H         -0.9296420208        0.1961398547       -1.5729569909
 H          1.2214659463       -1.4166838105       -3.9842681663
 H          2.4962567088        0.7127157081       -3.5774159637
 N          0.2644878104       -1.4096593359       -2.1273283071
 H          0.9693278440       -2.0166671972       -1.6973371312
 N          1.6196288172        1.0834508735       -1.7306498291
 H          2.4396322516        1.5753378913       -1.3731963853
 C          0.4459889920        1.4552258549        0.3800705406
 H          1.2487450827        2.1207269409        0.6752281191
 H          0.0506361027        0.9637999136        1.2616045599
 H         -0.3480358283        2.0371456403       -0.0756502184
 O         -4.5103624394        0.2495959187       -0.5327308671
 H         -5.4358509827        0.4749042807       -0.6300567269
 H         -4.1260730304        0.8835620512        0.1188064085
 O         -2.6441177292        3.8948384931       -0.2474095579
 H         -1.7435641178        4.2076625753       -0.0494636929
 H         -2.6053086408        3.5871631525       -1.1814228089
 O          1.3047364254       -1.8201149657        1.9422426316
 H          1.7148012205       -1.0254443204        2.3363407162
 H          0.3440823095       -1.6579308413        1.9199087387
 O          2.3832738745        0.4682155764        2.9153731367
 H          2.8993971387        1.1810034478        2.5049331941
 H          1.6106566641        0.9254169536        3.2897548671
 O         -1.9896013380        0.7146631486        3.0937340454
 H         -1.7978442265       -0.1716732590        2.7313997169
 H         -2.5057773902        1.1731597616        2.4089326056
 O         -1.5008061120       -4.1508539618        3.0875919386
 H         -1.6352388625       -4.4653247970        3.9810880503
 H         -0.5488560086       -4.3555285257        2.8574138045
 O          4.1392028045        2.0559938597       -0.5548533377
 H          4.3120377352        1.1099326631       -0.4102216846
 H          3.9577820427        2.4083192247        0.3342666302
 O         -3.1717958120       -2.1046916415       -0.1103939729
 H         -2.8121667352       -2.2912972564       -0.9900222347
 H         -3.7330636646       -1.3181778703       -0.2133768285
 O         -2.8818897615        0.2050123567       -2.7984526571
 H         -2.6752594826       -0.7368026616       -2.8671361330
 H         -3.5063966156        0.2801170418       -2.0596090656
 O         -2.1994727564        2.9610306631       -2.7150981037
 H         -2.3589974513        2.0188810137       -2.8694253783
 H         -1.2470302668        3.1139024314       -2.7961743120
 O         -2.0105210001       -2.5635231241       -2.6346666809
 H         -2.0297729042       -2.9357858227       -3.5165580363
 H         -1.0861266638       -2.1546235091       -2.4976128276
 O         -0.0083966989        4.6653753753       -0.0962426161
 H          0.1357514989        5.5945945239       -0.2789547889
 H          0.2259215740        4.1825678994       -0.9346768693
 O          4.1701141458       -0.6189561681        0.2736510017
 H          3.8978815774       -0.5696658781        1.1948827508
 H          3.7116028592       -1.3885427024       -0.0980872453
 O          2.3270757773       -2.6798542160       -0.4203961086
 H          2.1322648562       -3.6270778994       -0.4577576876
 H          1.9391010948       -2.3865232618        0.4290403376
 O          1.0061149282       -4.4930536760        2.4553804899
 H          1.0727366387       -4.8169357615        1.5378393644
 H          1.2814902528       -3.5599317839        2.4140166935
 O          0.5653886531        3.4406025555       -2.3770090226
 H          1.4240177076        3.8476094589       -2.5674292912
 H          0.8080638388        2.4959811018       -2.1667025064
 O          1.1432690228       -5.1851271985       -0.2049462606
 H          0.2327325573       -5.0481498839       -0.5777296765
 H          1.3775622066       -6.0894337341       -0.4136869314
 O          0.2043936122        1.9699331773        3.7817973639
 H          0.1202582037        2.1350707765        4.7211002586
 H         -0.6344424309        1.5118423580        3.5078149114
 O          3.2795833248        4.0148128623       -2.3434436144
 H          3.6129315644        3.3594036618       -1.7061726517
 H          3.9936314576        4.1681151879       -2.9623182136
 O          1.2438626475        4.1110618472        2.3381034307
 H          0.7570855955        3.4164580090        2.8147312342
 H          0.7616020504        4.2722675708        1.5087151173
 O         -3.0325879246       -4.7319230767        0.8478079034
 H         -2.5338757581       -4.6329803435        1.6754388255
 H         -3.3199800406       -3.8395255429        0.6061223991
 O         -1.2832375087       -4.9144429038       -1.1794928656
 H         -1.5407630468       -4.1186358475       -1.6669400014
 H         -1.9310375804       -4.9904804803       -0.4432493290
 O         -3.5637091462        2.0088012321        1.2298359923
 H         -4.2321968375        2.4538460949        1.7525764428
 H         -3.1479067977        2.7298538178        0.6597022444
 O          3.5183859209        2.8451166841        1.9965901935
 H          2.6860063072        3.3819688383        2.1014822951
 H          4.1842421024        3.2748391975        2.5333170796
 O         -1.4422835919       -1.6868628387        1.9414088550
 H         -1.5329129849       -2.5001868751        2.4718466661
 H         -2.0536069675       -1.8090908802        1.1869627225
  94
       -149.92726294
 H         -2.8924739740        0.8309219213       -0.4656213907
 C         -1.8232320482        0.9785626888       -0.3292961928
 C          0.2992250511       -0.1156405953       -0.5827552634
 C          0.6050829590        0.1480397365        0.8944131396
 C         -1.5223241843        1.2540351351        1.1478818729
 H          0.6951263481        0.7059972964       -1.1844774191
 H          0.2688020840       -0.7086410911        1.4947366289
 H         -1.8976529776        0.4097168769        1.7471061523
 H         -1.5084320241        1.8417462117       -0.9195292933
 H          0.7619067631       -1.0469847788       -0.9068294669
 H          1.6765982406        0.2790990470        1.0440429753
 N         -1.1304386021       -0.1968141458       -0.8403410086
 H         -1.5154700338       -1.0369273753       -0.4061791128
 N         -0.0702709980        1.3781833777        1.2939740064
 H          0.1483819447        1.5916416864        2.2632385603
 C         -2.2026623286        2.5323917220        1.6174192483
 H         -1.9579297634        2.7240392217        2.6597614851
 H         -3.2798439741        2.4304210783        1.5275890530
 H         -1.8792074867        3.3751952562        1.0113252701
 O         -5.3476997634        0.4663801933        0.6323238743
 H         -5.9945574123       -0.0427515535        0.1408694110
 H         -5.0786713550        1.1855479073        0.0229796469
 O         -3.0790261722        2.0943580805       -3.2676268844
 H         -2.3069788578        2.6539844388       -3.0714745183
 H         -2.7102610868        1.2151654129       -3.4529515873
 O          2.1096631223       -2.8927881912        0.8542923677
 H          2.6097849496       -2.4209132297        1.5452480847
 H          2.4164774480       -2.5199446992        0.0106822752
 O          3.4915835208       -1.3533591939        2.6352499029
 H          4.1433180325       -1.7077043142        3.2406325986
 H          3.0235135828       -0.6215051274        3.1424627774
 O         -0.2714343311        0.8888865866        4.2855863077
 H         -0.7554618928        0.0532020813        4.0960091724
 H         -0.4374803577        1.0863271447        5.2077567527
 O         -0.2067722166       -3.2458918912        2.1560855212
 H          0.6206492876       -3.0678504090        1.6576404866
 H         -0.1874889864       -4.1764918585        2.3848978464
 O          3.5105634179        2.2112517359       -0.3254609128
 H          3.8594578575        1.3386312056        0.0047077184
 H          4.2778837101        2.7675205179       -0.4687059515
 O         -3.9530805906       -1.1873014808        2.2222396299
 H         -4.6713482666       -1.5698365720        2.7286855533
 H         -4.3622910788       -0.4947703277        1.6571610051
 O         -1.4729704152       -0.1980771572       -3.4746997179
 H         -1.4063707025       -0.2028478037       -2.4772786348
 H         -0.6932783317        0.3026395389       -3.7705130907
 O          0.7917527578        1.2808417039       -4.0518384015
 H          1.6034744921        1.0425597064       -3.5439913372
 H          1.0734117922        1.4433153019       -4.9521918233
 O         -0.8825526338       -2.7416504548       -3.7405432425
 H         -1.1446187944       -1.7846686609       -3.6714456826
 H         -1.2270276606       -3.0616255191       -4.5742456173
 O         -0.6408035821        3.2539940002       -2.6537528640
 H         -0.1088781322        2.6440916060       -3.1873271162
 H         -0.1260405182        3.4218941752       -1.8461236102
 O          4.3437680787       -0.1616012571        0.3679087361
 H          4.1097856890       -0.5255231761        1.2453754710
 H          3.9315567269       -0.7482455343       -0.2803570490
 O          3.1821875962       -1.8740930403       -1.5527541885
 H          2.5409814665       -2.3841602699       -2.1553400790
 H          4.0361799737       -2.2577917052       -1.7649712945
 O          1.1036272470       -4.9668038803       -0.9643038513
 H          0.1345397231       -4.8392852977       -1.0713988235
 H          1.3778035768       -4.4321741404       -0.2115324002
 O          0.8636694570        3.3160006550       -0.3115939801
 H          1.7804595106        3.0524232089       -0.4561496814
 H          0.4634641049        2.5791685563        0.2348249919
 O          1.6963604003       -3.3503511693       -3.0003192489
 H          0.8142515803       -3.0778234527       -3.3084941435
 H          1.5330255173       -4.0825047163       -2.3589852294
 O          2.4291160610        0.5962765503        3.9398854982
 H          2.6671719643        1.4196963313        3.4663029793
 H          1.4641123185        0.6449339550        4.0704764174
 O          2.9723100531        0.7061219222       -2.6550847702
 H          3.1066763901        1.2961659685       -1.8968842054
 H          3.0141189879       -0.2013375090       -2.3118228192
 O          0.9411948900        4.6850911048        2.0229475630
 H          0.0826777201        4.5351523109        2.4210117238
 H          0.8691995901        4.3823274939        1.0936492994
 O         -2.2653604993       -2.5367883421        0.4945522402
 H         -1.5598433795       -2.8129916423        1.1055008738
 H         -2.9615119530       -2.1428637861        1.0427231546
 O         -1.4453105589       -4.2879415404       -1.4781887350
 H         -1.3237297840       -3.7670330918       -2.2882439112
 H         -1.8649068843       -3.6917526299       -0.8401538854
 O         -4.7429658787        2.3314314951       -1.2081148103
 H         -4.7306481806        3.2761547827       -1.0535880595
 H         -4.1728014787        2.1856112838       -2.0029731153
 O          2.8689346327        2.7889500984        2.4341786437
 H          3.0459230210        2.6254487476        1.4988455577
 H          2.2385051599        3.5324579249        2.4562809886
 O         -1.5922640876       -1.3850201508        3.7721976017
 H         -1.0630122443       -2.0395188694        3.2924738688
 H         -2.4117732870       -1.2668329618        3.2673478646
  94
       -149.92577974
 H         -2.5662565037        0.2674718002       -0.5638118802
 C         -1.5438560582        0.5005129725       -0.2766429465
 C          0.6324648837       -0.5002798753        0.0229616934
 C          0.6560377976        0.0106623808        1.4602728762
 C         -1.5164110908        1.0117215816        1.1658648165
 H          1.1200707445        0.2306700218       -0.6255323045
 H          0.2440863636       -0.7575699417        2.1298517973
 H         -1.9448561052        0.2370669946        1.8203024331
 H         -1.1674597078        1.2829050156       -0.9365039324
 H          1.1633954296       -1.4483212036       -0.0485156702
 H          1.6792022762        0.2238441842        1.7634106747
 N         -0.7255610310       -0.6943169176       -0.4687636502
 H         -1.1512834937       -1.4721845449        0.0249900811
 N         -0.1133466696        1.2505534567        1.5238099852
 H         -0.0724803593        1.6065185980        2.4758237065
 C         -2.3319225975        2.2871504999        1.3142737611
 H         -1.9515212510        3.0711570862        0.6666522724
 H         -2.3037969225        2.6367557682        2.3439457344
 H         -3.3633209584        2.0843337011        1.0435787363
 O         -5.0389200732        0.6908967528       -0.0863171233
 H         -5.9687119935        0.9193478021       -0.0847602945
 H         -4.7191981743        0.8936582814       -1.0151967730
 O         -4.2501786255        1.1225080581       -2.5169401113
 H         -3.5745433799        1.8171460063       -2.6317811519
 H         -3.8559361530        0.3049220851       -2.8751272645
 O          3.4376170682       -1.9335221951        1.7618100755
 H          4.2165841335       -2.4238315471        2.0307146230
 H          3.2840567267       -1.2541362860        2.4555807718
 O          3.2502343193        0.0325392774        3.6104547546
 H          3.5027640742        0.8672821468        3.1161721281
 H          3.8238422023        0.0025742030        4.3773479539
 O         -1.2364982873       -0.5106851615        4.4832413598
 H         -1.6326555257       -1.0593236758        3.7791678667
 H         -1.8887619722       -0.4726813345        5.1831759009
 O         -0.9722622478       -3.9076483296        1.0660973005
 H          0.0130815312       -3.8395308525        0.9884257649
 H         -1.1446747491       -4.7983805773        1.3737151436
 O          3.7523040314        2.0043467948       -0.4366508651
 H          4.6110112948        2.3897818193       -0.6178235028
 H          3.8810945081        1.0094858707       -0.4437237037
 O         -4.3325784995       -1.7702404502        0.5428087843
 H         -5.1710619730       -2.2144675410        0.6734308924
 H         -4.5514149018       -0.8281919625        0.3198950143
 O         -0.1929842006       -0.6657661695       -3.0670055234
 H         -0.4442552563       -0.7469358056       -2.1051956478
 H         -0.0575699268        0.2944657266       -3.1941070415
 O          0.4574202684        1.9612105268       -2.8905024951
 H          0.5918150115        2.2982135790       -1.9826279161
 H          1.3593417962        1.8959733858       -3.2602364603
 O         -2.9399796446       -1.1713945630       -3.2467709143
 H         -2.0162408108       -0.9220136071       -3.4054897458
 H         -2.9197206199       -1.8728914765       -2.5855908250
 O         -2.1955380757        2.9198387154       -2.7804043185
 H         -1.3406808112        2.5761625013       -3.0720744500
 H         -1.9937166677        3.5481440958       -2.0690685477
 O          2.4372850188       -1.2864081258       -2.6500329331
 H          1.5112557618       -1.0461679225       -2.8671598829
 H          2.4093383935       -2.2426653308       -2.4871389809
 O          4.0328854941       -0.5577444964       -0.5704546798
 H          3.4699604761       -0.8563114382       -1.3122407771
 H          3.7688292906       -1.0678769319        0.2130175085
 O          1.6462015020       -3.8753548536        0.8013079908
 H          1.8099365182       -3.8914260977       -0.1603110449
 H          2.2088934855       -3.1787089894        1.1721601676
 O          1.0269787742        2.8380888424       -0.3302645810
 H          1.9796771689        2.6894872112       -0.2843824841
 H          0.6033896437        2.2522392141        0.3608569015
 O          1.8742187111       -3.8873873538       -1.9275229868
 H          2.2212887549       -4.6749784314       -2.3470685634
 H          0.9488432739       -3.7738646107       -2.2806170709
 O          0.8123546640        1.3552114398        4.3763698880
 H          1.5904925907        0.8039054129        4.2070025909
 H          0.0760903543        0.7319584139        4.4930659359
 O          3.0841640307        1.4452292635       -3.2153241302
 H          3.3211383523        1.7068064914       -2.3148180119
 H          3.0795163319        0.4792276730       -3.2230035418
 O          1.5889531233        3.6143705784        2.9808209707
 H          1.2397084755        2.9577729647        3.6084855841
 H          0.9433439273        3.6977240438        2.2742324400
 O         -2.5443338354       -3.1178029798       -1.0779050009
 H         -3.2442031420       -2.6381622851       -0.6009979092
 H         -1.9807477455       -3.4854923623       -0.3764784926
 O         -0.4895721221       -3.4508746787       -2.9653863788
 H         -1.2614533621       -3.4418371351       -2.3794220689
 H         -0.4134725633       -2.5508712706       -3.3112947578
 O         -0.9913584986        4.6041509363       -0.8864665241
 H         -0.2043866305        4.0680640841       -0.6865374267
 H         -0.6821925640        5.3947072118       -1.3300118725
 O          3.8048013674        2.2291066126        2.3363871262
 H          3.7540529991        2.1730662748        1.3676342936
 H          3.0917391670        2.8469772544        2.6054979585
 O         -2.4118776744       -2.0536743969        2.5518250229
 H         -1.8484371744       -2.7128832432        2.1158401190
 H         -3.1353254132       -1.8772576825        1.9280332527
