  192
       -320.55349924
 H         -0.0245916629        2.0026191485       -0.4609853416
 C         -0.9642662168        1.4729561641       -0.3170404250
 H         -1.7489803452        2.1957705572       -0.0797578972
 C         -0.8129572930        0.4845923824        0.8263902558
 H         -1.7433976845       -0.0582465434        0.9811324200
 H         -0.5541370225        1.0293317685        1.7294585586
 O         -1.2410853135        0.8249307414       -1.5426296750
 H         -1.9789289493        0.1829466573       -1.4143382768
 N          0.2483211916       -0.4745200983        0.5058321803
 H          0.4304196740       -1.1056861208        1.3171374345
 H          1.1204694357        0.0238920526        0.2637219625
 H         -0.0456940099       -1.0680004693       -0.3124920918
 O          8.2401727143       -0.0050871301       -0.2436308043
 H          8.1258415881        0.9551804847       -0.1550568459
 H          7.7099810791       -0.4134723496        0.4587559381
 O         -2.2128590863       -1.5615889511        3.6808986065
 H         -2.8823617602       -2.0928865941        4.1382375695
 H         -2.6145426618       -1.3647685526        2.8029590181
 O         -2.1852880720       -4.0386895489       -0.1685774244
 H         -2.8025975873       -4.0686598484        0.5788353188
 H         -2.7512553804       -4.1033019299       -0.9547077152
 O         -5.4396325992       -0.4834259264        3.0093357608
 H         -5.2218063306        0.2167059381        3.6799570330
 H         -6.3184602651       -0.2912599341        2.6792510457
 O          7.4193925421        2.6235727673       -0.0888679257
 H          6.5295340508        2.2880218128        0.2170722222
 H          7.7291938728        3.2355219884        0.5793630052
 O         -3.1903881481        0.7444247092       -4.6179235656
 H         -3.0656317279        0.8357580384       -5.5620643760
 H         -2.8218926271        1.5501881541       -4.1848883518
 O         -3.2485935526       -0.9431331545       -1.3393518089
 H         -3.3766605820       -0.9978058923       -0.3732208516
 H         -3.3799304056       -1.8589164893       -1.6803236231
 O          4.3515821734       -4.2972624076        1.9056186581
 H          5.1692096118       -4.1890164739        1.3875321105
 H          4.2700823301       -3.5126149387        2.4665035575
 O         -2.1576343160        2.6813210119       -3.1415796329
 H         -2.7600023156        3.1733111060       -2.5640078761
 H         -1.7610210057        1.9861880466       -2.5521346627
 O          0.1841801981       -2.1360221845        2.6657390552
 H         -0.6951473689       -1.9906312663        3.0653731411
 H          0.1614369655       -3.0468596500        2.2815390411
 O          1.5221959564       -3.5839333733       -1.9377898710
 H          2.3078914139       -3.0462838132       -2.2019392803
 H          1.8253497910       -4.1450754343       -1.2090212664
 O         -1.8562534637        5.7224903633       -1.3854162056
 H         -2.5340893419        5.0273948704       -1.3916152214
 H         -2.2562006122        6.4780401544       -0.9517175112
 O         -0.0946904016       -4.9406175462       -3.6950331773
 H          0.4408173379       -5.2175761872       -4.4387788264
 H          0.4951846028       -4.4516768291       -3.0925082530
 O          0.0098842304       -4.4699702031        1.4947745509
 H         -0.7018239722       -4.4678888874        0.8385107355
 H          0.8236854533       -4.7371173252        1.0390840586
 O          1.9452154154        1.3191777825        1.6456312900
 H          2.0800267594        2.2803474513        1.5543442697
 H          2.7955560948        0.9654241865        1.9636757549
 O          2.4316028519       -4.9893152739        0.2739562724
 H          3.1582432034       -4.7676755513        0.9168428848
 H          2.5366652843       -5.9210198038        0.0777053375
 O          6.8654002109       -0.5294181702       -2.3994654909
 H          7.4359923855       -0.4346210361       -3.1622797485
 H          7.4261373867       -0.3501728628       -1.5956178506
 O         -4.1436942173       -3.8183140167        1.7635804828
 H         -5.0837969509       -3.6929595079        1.5122196282
 H         -4.1463676494       -3.7773958502        2.7309230083
 O         -1.9315945350        0.9807278583        4.4985543365
 H         -0.9736030892        1.1591516865        4.4523114427
 H         -2.0176850830        0.0160992332        4.3622311159
 O          1.6741527157       -1.4249096437        4.7081666627
 H          1.1315699726       -1.7477265480        3.9442296496
 H          1.3703906729       -1.8902841767        5.4870901240
 O          3.0668599776        2.8071617562        4.1419220069
 H          2.2259952096        2.3801643797        4.3723478330
 H          2.8690624485        3.4199589172        3.4210821519
 O         -2.3599557877       -3.5507500862       -4.3678909400
 H         -1.6471010659       -4.1806449365       -4.1570260618
 H         -1.9222133704       -2.6805443460       -4.3769099853
 O         -2.9577043150        1.9187832061        2.2690543941
 H         -2.3894625319        2.6960153717        2.1332968824
 H         -2.6334088512        1.5200223819        3.1109769238
 O         -6.6146124211       -2.9871223205        1.2620332508
 H         -6.4850294700       -2.0841683615        0.9048678759
 H         -7.2579297021       -3.4161295556        0.6983323654
 O          2.1222248061        0.6522262646       -1.3563419407
 H          3.0685590580        0.6387317380       -1.5699361763
 H          1.6569814385        0.3874177299       -2.1766346744
 O          3.9019013182       -1.8231490120        3.1993118907
 H          3.2261242230       -1.8093364267        3.8988515946
 H          4.1473684274       -0.8806809483        3.1053529103
 O          0.2203759371        4.6800771344        0.0018529070
 H          0.7162404256        4.1337720153       -0.6432859959
 H         -0.4376934437        5.1676820650       -0.5312668939
 O         -4.8388279248        1.3953812205        4.7402288781
 H         -3.8905495016        1.4421224474        4.9127598045
 H         -5.0894808010        2.2057459186        4.2644120590
 O          1.6604155599        3.2048638153       -1.7206363900
 H          1.8189669998        2.2416061748       -1.5296493346
 H          1.2820365015        3.2402553853       -2.6145096821
 O         -6.9699178551        2.0469444846        0.7498068499
 H         -6.9366475764        1.0894773306        0.6193960108
 H         -6.7368622447        2.4230197876       -0.1118954214
 O         -1.3537008629        4.0822995593        2.0396192314
 H         -0.8679286466        4.3119467489        2.8325934283
 H         -0.7515593237        4.2482874706        1.2773940992
 O         -3.8322688781       -3.3620999548       -2.2229281438
 H         -3.3556713897       -3.4955344158       -3.0869901458
 H         -4.7634484668       -3.2022038912       -2.4177991567
 O          6.1564577175        3.5352517690       -2.3009690097
 H          6.7410462436        3.2369930307       -1.5711934919
 H          6.7118173445        3.9700912411       -2.9478855437
 O          4.6830968521        1.1455632352       -2.4397290561
 H          5.1115161245        2.0108459217       -2.4980201412
 H          5.4037661221        0.4950214933       -2.3417923790
 O          6.1697643824       -3.1673994613       -2.0627430442
 H          5.2239210365       -3.0688562109       -2.2854634506
 H          6.5263193685       -2.2693452641       -2.1937837967
 O         -4.5947619273       -2.7385225022        4.2736418469
 H         -5.0246109085       -1.9737733817        3.8330738810
 H         -5.1411650286       -2.9671428250        5.0249706865
 O          3.6921274312       -2.1976022987       -2.4492616267
 H          3.9329451040       -1.5810275602       -1.7298082705
 H          3.6441141950       -1.6434783735       -3.2657814958
 O         -4.2018718761        1.1642048226       -0.0116440285
 H         -3.7763710644        1.3041207429        0.8481749918
 H         -4.1424084748        2.0086730878       -0.4797320075
 O          6.5755781408       -3.7988125523        0.4082040892
 H          6.3938425541       -3.5936296367       -0.5610773974
 H          7.3596950825       -4.3476946879        0.4191360927
 O         -6.3355763075       -1.9921747811       -2.4594887975
 H         -7.0860353473       -2.1518413446       -3.0311244865
 H         -5.9173413519       -1.1531723137       -2.7564430012
 O         -5.3078847924        3.1523411976        2.6203348671
 H         -4.5075858864        2.6151872627        2.4416816003
 H         -6.0032439417        2.8025813327        2.0305774098
 O         -3.8915607429        4.9304437161        1.1488393210
 H         -4.5275521260        4.4753203256        1.7410863309
 H         -3.0192289734        4.8056798453        1.5519251706
 O         -5.0853719577        0.3440102864       -2.7531552963
 H         -4.5607052564        0.4803546118       -3.5593238099
 H         -4.4214064465        0.0207624157       -2.0928817814
 O          2.3692972542        4.0228184661        1.6325973022
 H          3.1030194085        4.1744174663        1.0204405334
 H          1.6060900626        4.4455255921        1.2130967648
 O          6.4349644857       -1.3317349183        1.3900899279
 H          6.1021894428       -1.3559723543        2.2901323259
 H          6.5786140233       -2.2610175483        1.1070772623
 O          0.9703257339        0.3982042180       -3.7650551706
 H          0.1750044347       -0.1708076258       -3.8417799879
 H          0.7081436403        1.2981857660       -3.9969420567
 O         -1.2444633440       -1.1080385934       -3.8044877747
 H         -1.1713753253       -1.3916349213       -2.8705775307
 H         -2.0113843532       -0.5221080254       -3.8873812850
 O         -6.2562909306       -0.6033688559        0.0402014656
 H         -5.4534998103       -0.0414562579       -0.0020116129
 H         -6.3291453340       -1.0329930406       -0.8242510696
 O         -6.2069336879        2.6502120528       -1.9201529631
 H         -5.8263433586        1.7851075929       -2.1995727358
 H         -6.9571071169        2.8239532213       -2.4881697655
 O          5.0217832351        1.8246253388        0.5259727633
 H          4.7557632541        1.0073549821        0.0478096596
 H          4.5245567143        2.5693275385        0.1228186675
 O          4.3197978935        0.7963705657        2.8988716160
 H          4.0295516514        1.5134544720        3.5036020071
 H          4.7810228274        1.2237103427        2.1552968460
 O          2.4653435647       -1.9733685886        0.9205837687
 H          2.4044142327       -2.8849534509        0.6289291159
 H          2.8954191870       -1.9839693594        1.7998130906
 O         -3.4841384080       -1.2857898291        1.3531727980
 H         -4.2505076634       -0.8543270611        1.7789127390
 H         -3.6895104630       -2.2490788842        1.3798573081
 O          3.9716149036        3.9866060522       -0.6336093943
 H          3.1530107799        3.7822452353       -1.1312740563
 H          4.6742948899        4.0826793602       -1.2913937215
 O          0.3007992910        3.1443496058       -4.1000347418
 H         -0.6272617025        3.1286374281       -3.7842409273
 H          0.3676227468        3.8416928488       -4.7519170257
 O          0.7849122976        1.1487346199        4.0603001032
 H          1.1398548021        0.3243134143        4.4303782537
 H          1.1144558395        1.1690289440        3.1327214387
 O          4.4182288236       -0.6566796807       -0.3044224333
 H          3.6300373470       -1.0223457382        0.1534137635
 H          5.1904860094       -0.9496132245        0.2132596769
 O         -0.6314482662       -2.1565120819       -1.3637657226
 H          0.1605043035       -2.6701479270       -1.6339200196
 H         -1.2213561852       -2.7926111589       -0.9168856901
 O          3.5032499702       -0.4098836383       -4.3852486083
 H          3.9562256758        0.2811947180       -3.8736406445
 H          2.5605363813       -0.1772192174       -4.3561643381
 O         -3.8172679539        3.7122736590       -1.1515658738
 H         -3.9013634639        4.1756041382       -0.2707778902
 H         -4.7190241651        3.6448184979       -1.5016808430
