  101
       -167.53938155
 H         -0.8746527482        0.2100595045       -1.6512326824
 C         -0.7134224597        0.6586505828       -0.6675613719
 H          0.3127577069        1.0189882391       -0.5986304234
 C         -0.9834557453       -0.3727751481        0.4285084118
 H         -1.0570533041        0.1436244265        1.3874081003
 H         -0.1513842572       -1.0697707289        0.4685540906
 N         -2.1989687733       -1.1484476733        0.2326380794
 H         -2.9888361954       -0.5512618289        0.0176428837
 H         -2.0655410003       -1.8088763720       -0.5318663878
 O         -1.5472779618        1.8001275531       -0.5184055326
 H         -2.4604463089        1.5483751838       -0.8153598048
 O         -2.8746687761       -0.2922545572        4.1511696321
 H         -2.8236536956       -1.1297155007        3.6714531894
 H         -1.9653100393        0.0129298595        4.2734737783
 O          5.7046930148       -0.2191082376       -0.8730419548
 H          6.3467091705        0.0306185644       -1.5381438111
 H          4.8174883297        0.0038722438       -1.2526311310
 O         -3.5040774707       -0.9950748417       -3.2197376581
 H         -3.8489932828       -1.7392521053       -2.6790935094
 H         -3.6482724275       -0.1966606990       -2.6876873955
 O         -1.2277193845       -3.2595032768       -1.4972767978
 H         -0.3159420518       -3.2127942680       -1.1683454235
 H         -1.1898057311       -2.8876470084       -2.3944216847
 O          4.8250070406        0.8730022714        1.6135421050
 H          5.3868676852        0.6566363486        0.8592354230
 H          3.9301961885        1.0007662712        1.2251549325
 O          2.7176157464        2.9961454856       -2.8176522486
 H          1.9569753288        2.6745368397       -3.3224161468
 H          3.1250921244        2.1960532243       -2.4468487426
 O         -4.1341343397       -2.9961441443       -1.5312873011
 H         -3.2715694962       -3.3925760230       -1.3629791299
 H         -4.5080902602       -2.7357485983       -0.6689575382
 O         -3.8926582675        1.1678424378       -1.5205545253
 H         -4.0387104080        2.0220711430       -1.9698331796
 H         -4.5425715820        1.0775680925       -0.7975016793
 O          1.3155883189        4.4316523948       -1.0031152904
 H          1.9551038218        4.0051057423       -1.6117546412
 H          0.4624628368        4.3749608367       -1.4642871660
 O          4.3168235853       -1.5924176398        2.5782024775
 H          4.5907332301       -0.6767117852        2.3489976875
 H          4.8034345445       -2.1549599340        1.9610412453
 O          0.0125703103       -1.9703904574        3.3638345471
 H         -0.0928768159       -1.0394333605        3.6276650476
 H         -0.8701289982       -2.2608812339        3.0765343461
 O         -3.6888642376        3.6397341961       -2.6108529188
 H         -3.9918849615        4.4719249303       -2.2471221844
 H         -2.7138318677        3.7075886846       -2.6704702828
 O          0.4715035454        1.5958395676       -3.7773570052
 H          0.1720989697        1.3580987881       -4.6556339709
 H          0.7243964732        0.7595798315       -3.3403563489
 O         -5.2437895875        0.7248404354        0.7637781841
 H         -6.1400934133        0.9856549725        0.9768867406
 H         -4.6697942260        1.1195191480        1.4810689552
 O          3.3307372745        0.5056230472       -1.7820952963
 H          2.9037133283        0.6873965938       -0.9169805211
 H          2.7110838050       -0.0597567827       -2.2664172980
 O         -0.2551300876        0.7292436376        3.7716695727
 H         -0.6009892835        1.4471547537        3.2044578266
 H          0.6943382393        0.8928453703        3.8627873816
 O          1.3627608838        3.3702783478        1.3793795598
 H          1.9885290649        3.8946214039        1.8793470131
 H          1.3210476368        3.7849341802        0.4708028027
 O         -5.0155855443       -2.0614270441        0.9234044675
 H         -5.1569625960       -1.1034092628        0.8482984436
 H         -4.4234364552       -2.1851724401        1.6746759433
 O         -2.5396022155       -2.5228454521        2.4190718182
 H         -2.5595605767       -3.4516318521        2.1864913035
 H         -2.3992006844       -2.0076196264        1.5504759676
 O          1.1652259848       -0.8921983091       -2.8174168973
 H          1.2609995657       -1.5116508271       -2.0584057061
 H          0.4354837358       -1.2723671306       -3.3328738168
 O          5.6506670240       -2.6319654924        0.3290264222
 H          5.6498722750       -1.7580929279       -0.1196059790
 H          6.5526420423       -2.9534587550        0.3019988134
 O          2.5651162446        0.7186953839        3.6868648931
 H          2.7936150801       -0.2045891650        3.8294577862
 H          3.3498318559        1.1279530649        3.3116205869
 O          1.8587894879       -1.5040616548        1.5446907526
 H          1.1905849554       -1.7434886647        2.2315258618
 H          2.7387447257       -1.6440172996        1.9598585563
 O          2.3326239383        0.9634486464        0.6417959226
 H          1.8871839046        1.7438422936        1.0265193158
 H          2.0042794025        0.1479989521        1.0802995672
 O          1.4194250388       -2.6638706002       -0.8234490068
 H          1.5887033994       -2.2546391217        0.0530835772
 H          2.1843407377       -3.2471691625       -0.9813577614
 O         -1.1601599898       -1.8655083146       -3.9174210408
 H         -1.3337817894       -2.3909311201       -4.6983285398
 H         -2.0376443540       -1.4506970005       -3.6746525665
 O         -0.9560200172        3.6016741373       -2.4043998270
 H         -1.1233594666        3.0131773033       -1.6377416789
 H         -0.4882747866        3.0375851253       -3.0387066429
 O         -1.1760405539        2.6515111306        2.0531400285
 H         -1.3690408275        2.3592571582        1.1420781076
 H         -0.3217431909        3.1070470626        1.9708667912
 O          3.6857636638       -4.1660673791       -0.8487817405
 H          3.5865809327       -4.9396361183       -0.2923359191
 H          4.3737118354       -3.6124246641       -0.4367205126
 O         -3.8069203642        1.7446158141        2.6760798827
 H         -2.9851480558        2.2299612620        2.5285278121
 H         -3.5711411205        1.0125694182        3.2880259934
