  219
       -371.63537590
 O         -1.2486526802        2.1113770989        5.6937698021
 H         -1.6733599445        2.8291404568        5.2021891170
 H         -1.9180733454        1.4158359291        5.7916636154
 O          3.1713650995       -2.1542366892        2.0191066215
 H          2.4604626558       -2.3324578499        2.6538469458
 H          2.7099221011       -1.9146910721        1.1897725003
 O         -4.0032955721        2.8744233397       -2.5997210488
 H         -3.4954655241        2.6082193968       -3.3865602891
 H         -4.5212083141        2.1027239123       -2.3180543077
 O         -4.6928162547       -3.3571134899        2.3510699874
 H         -3.9232807607       -3.5765485548        2.9030695755
 H         -4.6453127488       -3.9419424977        1.5566307998
 O         -2.3553898983        1.1511692529        3.0112050980
 H         -3.2787715879        0.9563235788        3.2325874293
 H         -2.2061815041        2.0756542353        3.2751088144
 O          0.8144578572       -4.1719646638       -0.6558795141
 H          0.1640143542       -4.2338801124       -1.3783764974
 H          0.3438109448       -4.3995803574        0.1573176466
 O         -0.6409895135        5.3921576504        2.5129690576
 H         -0.4746851340        6.1882672052        3.0187274239
 H          0.1279393292        4.7975080207        2.6791435107
 O          6.8123227415        3.3023789075       -2.1323728315
 H          6.0976611849        2.9698407803       -1.5345104089
 H          7.2805270245        3.9849319024       -1.6514905559
 O         -1.4956431117       -1.0960961491        4.1094162225
 H         -1.7164653826       -0.3537762141        3.5009238483
 H         -1.9147048416       -0.8337790434        4.9395827419
 O         -4.9557892005        0.9341053016        3.9177763160
 H         -5.1348772841        1.8613514609        3.7255199370
 H         -5.4838666646        0.4083125347        3.2830540911
 O          3.6366759201        3.7946390013        1.2292597508
 H          4.1397762416        3.5557570704        2.0168277537
 H          4.0520850912        3.2787942876        0.5128592234
 O          4.7587633720        1.9489054595        2.9959711171
 H          5.5808922449        1.8557218744        2.4898591783
 H          4.6939122086        1.1233262359        3.5187168398
 O          2.0222918463        4.6661518402       -0.9435798027
 H          2.6123386030        4.8820066983       -0.2128373035
 H          1.1595889599        5.1253060424       -0.7658443872
 O         -0.3458295680        5.5531452886       -0.2605540203
 H         -0.4501093873        5.5918203641        0.7038972619
 H         -1.0564117114        4.9546617357       -0.5573850651
 O         -2.9154388733        0.2375622806       -1.2680261495
 H         -3.4025130513        0.7722392386       -0.6054337626
 H         -2.5555293819       -0.5192104096       -0.7942911490
 O          1.9473987153       -2.5209625160       -3.1256361127
 H          1.1391421706       -2.0720270905       -2.8010469481
 H          2.4743307184       -2.7665450914       -2.3351333075
 O          8.9914174892       -0.6194441349        1.0059803363
 H          9.7595582835       -1.1909878864        1.0060023737
 H          8.4170710739       -0.9160454943        1.7329925341
 O          0.5612049734        2.7252763642       -4.4089956208
 H          0.1040007325        2.5715193021       -3.5710789339
 H          1.4425323093        3.0490647063       -4.1586871879
 O         -2.4043699744        3.7997600913       -0.5873918193
 H         -2.9014303275        3.4833789458       -1.3613704028
 H         -3.0416717528        4.3133395903       -0.0675593379
 O         -1.0852796114       -4.4505093303       -2.6434320156
 H         -0.4811440233       -4.6352876593       -3.3836886925
 H         -1.6998649894       -3.7904987527       -2.9962498928
 O          2.9641244507        3.3547263137       -3.2394736909
 H          2.6843033736        3.8924491062       -2.4818927765
 H          3.7128782973        3.8356190964       -3.6425833716
 O          0.7859274738       -4.3368162078       -4.6253324549
 H          1.3976724478       -4.9057560228       -5.0909161364
 H          1.3234507246       -3.7137569641       -4.0757653449
 O          3.5167488741       -3.1391012828       -1.0711092020
 H          4.4427268647       -3.3072670052       -1.3982280193
 H          3.1531915984       -3.9581990393       -0.7298386285
 O         -0.3559594488       -3.7145259232        1.8227115798
 H         -1.1165731501       -3.9255707323        2.3890802265
 H          0.2804081696       -3.2855820417        2.4138058847
 O         -2.3378575826       -3.5686047347        3.6895702668
 H         -2.1811751819       -3.9904868633        4.5341215338
 H         -2.0802866608       -2.6154095337        3.7986581098
 O         -2.3861697467        1.8143339880       -4.5436855284
 H         -1.7048410921        1.6061787679       -3.8628317781
 H         -1.9177568830        2.2652814025       -5.2473383870
 O          2.2213912977       -0.4286019260        5.4422339904
 H          2.2027272756       -0.2240030654        6.3764318431
 H          1.7434069239        0.3115201356        4.9813656441
 O          0.9779353456        0.0800239430       -4.6574362064
 H          1.1482030651       -0.0100391008       -3.7046061765
 H          0.7854345111        1.0306604903       -4.7847254500
 O         -7.2285395101        2.2902821872        1.5186352577
 H         -6.4745591339        2.7779318830        1.8967124128
 H         -7.1040360195        1.3553482380        1.7567920996
 O         -4.8039664690        3.3510737078        2.3464180088
 H         -4.4322233386        2.6581469096        1.7556393853
 H         -4.7543674938        4.1665865083        1.8144404939
 O         -4.0622236399       -0.1828436220       -3.6983388482
 H         -3.5971327290        0.4595210439       -4.2553137185
 H         -3.7195994881       -0.0259231824       -2.7947318094
 O          6.8116935722        0.6130001906       -2.9444634948
 H          5.8389208800        0.7430335147       -2.9339393258
 H          7.1790425372        1.4972205682       -2.8301731933
 O          5.2788712110        4.3909332103       -4.1092573041
 H          5.6845714945        4.2968717201       -4.9710507436
 H          5.8978954257        4.0107835018       -3.4550911344
 O         -7.6717071375        2.7346265067       -1.0266574513
 H         -7.5406900512        2.5988633957       -0.0508704750
 H         -8.6023711478        2.9221096490       -1.1497927951
 O         -1.5945340542       -2.0884517251        0.0892891626
 H         -2.2970696482       -2.5878612602       -0.3765819803
 H         -1.1460803925       -2.7214045343        0.6891545499
 O         -3.6849318286       -2.7952380080       -1.3622672411
 H         -4.3259973505       -2.1101736001       -1.0639626078
 H         -3.5143230861       -2.6671531976       -2.3024324888
 O          1.3867287937        3.7572442207        2.8998911679
 H          1.3613706710        2.9439936157        3.4392086732
 H          2.1883164677        3.7440424861        2.3584366583
 O          3.4724848737       -0.9107941130       -4.6496461402
 H          3.0179241567       -1.5744919024       -4.0865521534
 H          2.7358324312       -0.4837016648       -5.1162365425
 O          6.0005399496       -3.2861704228       -1.7888138314
 H          6.0251340375       -3.0357792438       -2.7342071139
 H          6.4471158134       -2.5311985204       -1.3553280092
 O         -3.2390104042        0.1330145942        5.9010183873
 H         -3.6920789017        0.1503397308        6.7439884545
 H         -3.8961085560        0.3800577031        5.2221378233
 O         -2.4512755292        3.7470249707        3.7617813397
 H         -1.8867960443        4.3692540825        3.2688429715
 H         -3.3356837356        3.7839698644        3.3591471841
 O          4.9935228411        2.1984957903       -0.5296193342
 H          5.5957926169        1.7573940281        0.1046407402
 H          4.6125891301        1.4896548452       -1.0705874321
 O          6.9319511490       -0.9683882063       -0.7854997487
 H          7.0240888255       -0.4089289423       -1.5858837694
 H          7.7294176572       -0.8424593946       -0.2451819799
 O          6.7202994079        1.1735399660        1.2557680535
 H          6.6472803432        0.2603700807        1.6307096517
 H          7.6522362412        1.2784607781        1.0540306846
 O          1.7619495638        0.1636015808       -1.9192696828
 H          1.7018973925       -0.5512901175       -1.2574086746
 H          2.7111232184        0.3165706228       -2.0770543784
 O         -4.3161262834        1.3191342514        0.6792727725
 H         -5.1932057504        1.1964656841        0.3063294992
 H         -4.0858423091        0.4973182004        1.1791902975
 O          1.4421712278       -1.6883010104        0.0287308434
 H          1.2422219454       -2.6062106783       -0.2635196376
 H          0.7750785904       -1.4334556239        0.6790957468
 O         -5.7849658449        4.7039130679       -1.5796026349
 H         -5.1341015339        4.2017624403       -2.0975823659
 H         -6.5150842680        4.0881232545       -1.4051751461
 O         -5.9272644680        0.9250333801       -1.9522291544
 H         -5.9621671292        0.6363184380       -2.8698136606
 H         -6.6611757923        1.5452669460       -1.7776822623
 O          0.9919363324       -2.1908192890        3.7197422215
 H          0.1507604249       -1.6998277622        3.7392162246
 H          1.5127253550       -1.7790652070        4.4270784809
 O         -5.5645768288       -1.2147145497       -0.3428225572
 H         -5.8101171419       -0.5442079155       -1.0037607474
 H         -6.2237454018       -1.9497248647       -0.3652249553
 O         -4.4275974220        5.3235827329        0.5684739799
 H         -4.3226015322        6.2732790845        0.6172625459
 H         -4.9964845182        5.1430423638       -0.2289433428
 O         -7.2824265025       -2.8551702730        2.6629996044
 H         -6.3239966077       -3.0775711393        2.6713309810
 H         -7.7019625073       -3.3720858053        3.3503241135
 O          4.2832705522       -0.5607250034       -0.4049376149
 H          5.2468308063       -0.7022594220       -0.4162957551
 H          3.8887874736       -1.4215562247       -0.6049859071
 O         -0.7991130391        1.3212807789       -2.4365071930
 H         -1.6070322404        1.1999046201       -1.9059307800
 H         -0.4243843358        0.4229635717       -2.4967091716
 O         -2.4519575980       -2.2969373675       -3.8225416702
 H         -3.1071005658       -1.5772143719       -3.9536590810
 H         -1.8569614068       -2.2528187467       -4.6150773854
 O          5.5978613055       -3.2552827482        1.3333997222
 H          5.6856755840       -3.4513287149        0.3970266314
 H          4.6768172536       -2.9915283756        1.5050241474
 O          6.7646641416       -1.1727473909        2.4886575272
 H          6.4162357798       -1.9751386438        2.0341811110
 H          6.1588625700       -1.0240201554        3.2286625550
 O          0.8255057300        1.4192489231        4.1812217705
 H          0.4353792566        0.9454747938        3.4207695688
 H          0.0775878542        1.6740518174        4.7703934311
 O          6.0474980973       -1.9372060280       -4.1291366449
 H          6.5328351355       -1.1349432626       -3.9034255462
 H          5.2016464075       -1.6437935986       -4.4925814044
 O          4.4425508391       -0.5694835652        3.8514262537
 H          4.0309681987       -1.0721500895        3.1199180918
 H          3.7717043733       -0.5624863126        4.5537753690
 O         -3.5343913396       -0.9730857649        1.7452225627
 H         -2.7475152229       -1.2996905442        1.2836454946
 H         -4.0761246766       -1.7553359488        1.9487543303
 O         -6.4813852465       -0.2999925239        2.0432528714
 H         -6.9730614686       -1.0582955071        2.3900605640
 H         -6.0330227480       -0.6435945106        1.2408979267
 O         -0.4145573294       -1.4120189492       -2.2935138071
 H         -1.1367223107       -1.6999641056       -2.8877690986
 H         -0.6830119883       -1.6898911756       -1.4006379821
 O         -7.0919868921       -3.3410726004       -0.0796507116
 H         -6.4814679129       -4.0879548612       -0.0802400668
 H         -7.3825187188       -3.2292344881        0.8398949214
 O         -0.5564084318       -2.0248196860       -5.5908644066
 H         -0.0299763347       -2.8249174891       -5.4527698192
 H         -0.0046258917       -1.2688363982       -5.3152582444
 O          2.9253383467        0.8435998390        1.3702041568
 H          3.5382289153        1.2891324870        1.9910090816
 H          3.4674038932        0.2702649563        0.7851181238
 O          4.1384020717        0.9516813285       -2.8870816419
 H          3.7395868450        1.8156746817       -3.1199054653
 H          3.9420530919        0.3193417044       -3.6196314740
 O         -1.9661723235       -5.6277187908       -0.2879912245
 H         -1.7596634507       -5.2567418194       -1.1630757629
 H         -1.6243706950       -6.5216206663       -0.2853981433
 O         -4.5567691792       -4.8224982559        0.1443762036
 H         -4.3370339043       -4.1346378042       -0.5142495398
 H         -3.7468883404       -5.3567194393        0.1714041256
 O          0.4426216930        0.1080449696        1.8621237913
 H          0.0673835909        0.7783664317        1.2653367453
 H          1.4013357590        0.3127394497        1.7443367575
 O          2.9459139543       -5.0268937347        1.0522988642
 H          2.0933537895       -4.9602778760        0.6157990613
 H          3.0637625640       -4.2146672462        1.5597549436
 O          0.5249504081        1.9961750114       -0.1054312010
 H          0.8977599288        1.4364178302       -0.8013537566
 H          1.0010011025        2.8276469057       -0.1674961953
