  114
       -193.42875052
 O         -2.4819511425       -3.4336520764        0.4339797197
 H         -1.6998807118       -3.6905469235        0.9506443768
 H         -2.2371785256       -3.4108207656       -0.5152560203
 O         -0.7753009826       -3.8410727904        2.5735441939
 H          0.1624296153       -4.0416349130        2.6443569665
 H         -0.8575738519       -2.9114102564        2.8522213525
 O          2.3131086783       -3.5313117080        2.4095298961
 H          2.0285460677       -3.7794415796        1.5098209240
 H          3.1768733704       -3.1101954251        2.2855713815
 O         -0.2301276594        3.8654324282        1.0359454088
 H         -0.5137959384        3.0469511224        1.4719659642
 H          0.7426643888        3.9097638217        1.0848865499
 O          4.3221224900       -1.6321140232        1.8891076895
 H          4.3278920437       -0.8795625802        2.4886825021
 H          4.5162912203       -1.2873581391        1.0096273976
 O         -1.3299046572        1.4070154580        1.8471595694
 H         -1.1382037226        0.5847319367        2.3352424932
 H         -2.1914044629        1.7119293196        2.1997833299
 O         -3.8160149709        1.7666866454        2.8309022277
 H         -4.2816885995        1.7340933348        1.9804303555
 H         -3.8809767022        0.8907890637        3.2305830729
 O         -0.7519893572       -1.0721071096        2.8740010884
 H         -0.4758245457       -1.2603274289        1.9269087529
 H          0.0817631561       -1.0853870448        3.3923386333
 O         -0.8060904596        1.1591422360       -4.6516773590
 H         -1.7201203514        1.3614089601       -4.3035765428
 H         -0.8746105552        1.2064377944       -5.6046807268
 O         -0.9566847696        3.2366999902       -1.4022734113
 H         -0.6893576045        3.5816531734       -0.5106505256
 H         -1.8804403449        3.4957456004       -1.5336808029
 O         -3.7001542842        3.1959091523       -1.5665317389
 H         -3.9653517069        2.5221097158       -0.8968510430
 H         -4.3005707898        3.9334109180       -1.4611990318
 O          3.3153490809        0.6714779505       -2.8574665497
 H          2.9846052654       -0.1321208530       -3.2895052274
 H          2.5423555993        1.2645111244       -2.7866125708
 O         -5.8775867089       -1.8122390703        1.8737729031
 H         -5.5435196557       -1.1563320612        2.4920250351
 H         -5.4142964316       -2.6311653345        2.0921861923
 O         -3.4140494760       -1.0279247536        3.4950598309
 H         -2.4450670748       -0.9867325990        3.5620851453
 H         -3.6216917822       -1.9794447049        3.4249045894
 O         -1.9665967217       -2.8709261634       -2.1360283728
 H         -1.1900529574       -2.3601804925       -2.4080926782
 H         -2.6993829010       -2.2339587056       -2.2359110116
 O          3.5938717512       -2.9475940829       -1.5920808556
 H          4.0819203762       -2.2213438985       -1.1850841609
 H          3.1303873841       -2.5620042849       -2.3544357375
 O         -5.9290213939       -0.8826746223       -0.6625922294
 H         -5.8588834642       -1.2608867589        0.2414318361
 H         -6.6437946608       -1.3496867141       -1.0945873045
 O         -1.5121696433        0.7000123866       -0.8597533684
 H         -1.3314690511        1.6225609216       -1.1505728130
 H         -1.5731544043        0.7645546185        0.1115470937
 O          2.0896882127       -1.6742726113       -3.5491244128
 H          1.9114940935       -2.1238973553       -4.3751588893
 H          1.2168292312       -1.3674481352       -3.2021300778
 O          1.6274231550       -1.3754850994        3.9831367303
 H          1.8722676173       -2.2068769557        3.5371939772
 H          2.3428202869       -0.7497748701        3.8061503012
 O         -3.5494892873       -0.6479074951       -2.1127051708
 H         -4.3662173726       -0.7496764761       -1.5978726170
 H         -2.9018604952       -0.2100876642       -1.5228926523
 O         -0.2752814392       -0.7537908143       -2.8082415696
 H         -0.4828937588       -0.1899734008       -3.5754770585
 H         -0.6130624073       -0.2380589600       -2.0495957437
 O          1.0656107129        2.2258662200       -2.8702389054
 H          0.4006176237        2.6656515718       -2.3086593300
 H          0.5542138856        1.9153265498       -3.6326723169
 O         -3.1051566215       -0.8032438566        0.7921793842
 H         -3.2227852350       -0.8102902061        1.7566352477
 H         -2.9277174900       -1.7285354556        0.5487436225
 O         -3.2365944318        1.5079713179       -3.7503595016
 H         -3.4337860156        0.6676704019       -3.2910834265
 H         -3.3651043829        2.1988787363       -3.0816597625
 O          3.3227407077        0.8124803275        3.2270765279
 H          2.9403447769        0.8626997509        2.3204718741
 H          2.8124621445        1.4113174569        3.7757190089
 O          6.1635963181        1.7298290479       -0.0594058911
 H          5.6961678398        2.1989459039        0.6844334050
 H          7.0990736246        1.8762699282        0.0799787277
 O          1.6399752426       -4.1538996907       -0.1767027607
 H          2.3783240816       -3.7384695024       -0.6765188216
 H          1.6560064556       -5.0845771860       -0.3987724231
 O          2.9095118506        4.1816380957       -1.7359080683
 H          2.2666537922        3.6763570704       -2.2482289551
 H          3.7856693851        3.8428733121       -2.0075703534
 O          4.8991614679        2.8756133206        1.9363658259
 H          4.5576962967        2.1872490388        2.5231415867
 H          4.1166385517        3.3608339491        1.5996380435
 O          4.5149272946       -0.3052428872       -0.6899899229
 H          4.1360335520        0.0167435774       -1.5415896110
 H          5.2588082046        0.2973704539       -0.5030877178
 O          5.1365504508        2.7882619306       -2.4367633060
 H          4.6510269273        2.0327340444       -2.7932629093
 H          5.5565806083        2.4792260895       -1.6183189147
 O         -4.5565035722        1.3428886134        0.1732116901
 H         -5.3304078739        0.8859348630       -0.1800205572
 H         -3.9054884252        0.6189986561        0.3072100150
 O          2.5288895176        3.6859923855        0.8504089777
 H          2.6756574803        4.0520569898       -0.0528746958
 H          2.4609789073        2.7265515793        0.7075088612
 O         -3.8740222871       -3.6182005941        2.7356846640
 H         -3.4798187286       -3.6073796651        1.8418719905
 H         -3.3266909805       -4.2278388920        3.2354623102
 O          2.4155558234        0.8202279543        0.6669853706
 H          1.6776006024        0.2050098237        0.5575568826
 H          3.1546275684        0.4444236725        0.1425321891
 O          0.4018486494       -1.3776018500        0.4112083029
 H         -0.2642741305       -1.1174692048       -0.2348525977
 H          0.7266191165       -2.2545549958        0.1709992220
 O         -3.1482916628        4.2895378821        1.1995931728
 H         -2.1915928037        4.3954877730        1.1618443497
 H         -3.3371342441        3.7807185010        1.9921267617
