  99
       -167.97238323
 O         -0.8472195479       -2.0114082205        2.5055402313
 H         -0.0141696673       -1.9650128280        3.0060280138
 H         -1.5206482333       -1.5823907238        3.0566985664
 O          1.4768329597        3.9047774666        1.5277064532
 H          2.4326306016        3.7025686792        1.4886355228
 H          1.1440032853        3.4087750795        2.2885669655
 O         -0.7718301880       -1.9126243933       -3.2789522253
 H         -1.3057888827       -1.1047514791       -3.2942481316
 H         -0.0773311902       -1.7455244966       -2.5948061346
 O          2.7607505387       -3.4279337739       -2.6374265055
 H          2.6299782807       -4.3709152176       -2.7341427003
 H          2.4656674965       -3.0147620957       -3.4907832203
 O          4.5279322769        0.0864736350       -2.0393349799
 H          3.8256824686       -0.0090658666       -2.7054487690
 H          4.4343990845        0.9903178446       -1.7182231177
 O         -2.1093039456        4.0719363028       -0.3833186243
 H         -2.3194137928        3.2667474313        0.1363726791
 H         -2.0511610301        4.7899080516        0.2481297125
 O          0.8473257593        2.3711495301        3.8879061633
 H          1.5450361561        1.6748506982        3.9393593586
 H          1.0694969457        3.0018874587        4.5748101046
 O         -4.2503411717       -0.3583259246        1.6373937532
 H         -3.8861604394       -0.9348314693        0.9325602442
 H         -3.8783763372        0.5236398148        1.4095430556
 O         -5.4497644439       -0.3655061092       -1.8296780902
 H         -5.1438351404        0.5386785375       -1.9748043781
 H         -6.0810615433       -0.3137482010       -1.0891951238
 O          4.0475965854        3.0053811727        1.2451437331
 H          4.3376921584        2.1326457866        1.5409457183
 H          3.9305649320        2.9248291172        0.2800555965
 O          2.5188941200       -3.0930220303        1.4541224833
 H          1.7421215851       -3.4095303013        0.9787602694
 H          3.1106044624       -2.6764037072        0.7941698791
 O          2.7967332554        0.5055858059        4.0385895027
 H          2.3720221892       -0.3678053692        3.9862315035
 H          3.4908643972        0.4906413476        3.3630106203
 O         -6.7326764397       -0.0333552685        0.5666586057
 H         -5.9143750333       -0.2114227041        1.0733837429
 H         -7.0851696088        0.7952363929        0.8916772293
 O          4.0917406067       -2.0910793227       -0.5085291885
 H          3.8828798420       -2.6991354258       -1.2275818146
 H          4.2973856906       -1.2485992844       -0.9657521354
 O          4.4791692889        0.1784436520        1.6713096463
 H          5.1776874163       -0.4590692744        1.5163555479
 H          3.8449990827        0.0403288787        0.9465238815
 O          1.0302944873       -1.7690407543       -1.3431725791
 H          0.6181519837       -2.3668708494       -0.6775640917
 H          1.7575917487       -2.2848515401       -1.7390765823
 O          1.6609078964       -2.1907213787       -4.6903822963
 H          1.9845494172       -1.2910506747       -4.5021061894
 H          0.7232875896       -2.1798854954       -4.4434081834
 O          1.6612519676       -2.0098769771        3.6782171727
 H          1.8601836702       -2.6314187972        4.3791008471
 H          2.0659291460       -2.3919358489        2.8537804779
 O         -2.0812935128       -3.6080331692       -1.7131639533
 H         -2.4566835715       -4.3336512809       -2.2113226481
 H         -1.6051625017       -3.0317827796       -2.3678543178
 O          0.5640895067        3.6824549963       -1.0355514329
 H         -0.3737427711        3.9290678037       -0.9830950935
 H          0.9190917595        3.8457519535       -0.1355284755
 O          0.4190689222        1.2038613877       -2.2734875025
 H         -0.5195436196        0.9841892641       -2.3934128582
 H          0.4633555017        2.1054141235       -1.9112749466
 O          3.1768883841        2.4767296226       -1.2967308302
 H          2.7183902225        1.7087935663       -0.8972865427
 H          2.4841698111        3.1210632323       -1.4734501708
 O         -3.3287989023       -1.4067643989       -0.6408745376
 H         -3.0384947056       -2.2819675615       -0.9406621077
 H         -4.1522731178       -1.1766236926       -1.1380966924
 O         -0.1519196038       -3.4688321512        0.3124898797
 H         -0.9036812977       -3.6760591018       -0.2644533920
 H         -0.5174646947       -3.0319541689        1.1025084357
 O         -2.8115418619       -0.6128391162        3.8510925068
 H         -3.3502384229       -0.9251758212        4.5780011373
 H         -3.4044157785       -0.5666632319        3.0589530577
 O         -2.1699733915        0.3067773642       -2.4159275351
 H         -2.8217648934        1.0246764801       -2.4036707828
 H         -2.4610938087       -0.2877863740       -1.6936267390
 O         -2.8368683942        1.7915919403        0.9233909773
 H         -2.1273679797        1.1293013161        0.6219314560
 H         -2.5714533472        2.0213236074        1.8406832315
 O          2.3858236206        0.2931268625       -3.7922515693
 H          1.6606545125        0.5880214583       -3.1913774738
 H          2.6265583861        1.0603888722       -4.3124735322
 O         -4.0439148822        2.1537212225       -1.5818653968
 H         -3.7196869871        3.0421067585       -1.7545427776
 H         -3.7953560167        1.9725197894       -0.6612189162
 O         -1.9683472760        2.0410959705        3.4673000616
 H         -1.0340628327        2.1970774267        3.6739720025
 H         -2.1679135302        1.1381977200        3.7627972114
 O          2.1752383116        0.2991739249        0.0582590103
 H          1.8148859935       -0.3851765802       -0.5350849010
 H          1.4624600993        0.5626342502        0.6470731980
 O         -0.8433285134        0.0249273470        0.5202286914
 H         -0.8551068317       -0.7469071623        1.1132240077
 H         -0.4977951121       -0.2502708129       -0.3345592706
 O          6.6359022752       -1.8517763904        0.3850637339
 H          5.7626873654       -2.1658211000        0.0942947870
 H          7.0514915521       -1.4813431143       -0.3953000676
