  309
       -524.49010855
 O          6.9323445834        3.7740838183        2.4085406377
 H          7.7145704327        4.3243889399        2.4194183267
 H          6.8713651688        3.3808308443        1.5050302406
 O          1.0590196272       -3.4687518849       -2.2210097652
 H          0.5769348603       -4.3137499760       -2.2272479035
 H          0.7887578969       -2.9740274266       -1.3898385128
 O         -1.2528295407       -4.8383336622        4.0302681233
 H         -0.8484910234       -4.8029749836        3.1351812081
 H         -2.2053784959       -4.7735264116        3.8984803574
 O         -0.2546243369       -1.1867380623        3.5992661472
 H         -0.4714297239       -1.7453156040        4.3752072329
 H         -0.3941010060       -0.2770885377        3.8806637371
 O         -0.6977069103       -2.0950812913       -3.5443476167
 H         -0.2377218676       -1.2819491129       -3.8177685004
 H          0.0144108935       -2.6814822349       -3.1716187989
 O         -6.8688506308        3.4973139825        3.7375883489
 H         -6.4088218021        4.1404355607        3.1727585886
 H         -7.3189759730        2.8876587081        3.1314775156
 O         -3.2842880652       -1.3210781036        4.1906465273
 H         -4.0855199724       -0.9620062408        4.5723572055
 H         -3.4863968276       -2.2564404638        3.9412217192
 O          3.1549672769        5.2530312270       -2.2348513103
 H          2.4592699114        5.6855734830       -2.7431729265
 H          3.3038216702        5.8268721057       -1.4399319383
 O          7.1011421039        2.1551101543       -3.7641903097
 H          6.4181770231        2.6917747751       -3.3283632167
 H          7.6859679316        1.8523952029       -3.0581202359
 O          4.0487276437       -1.4285029154        1.6533803834
 H          3.8048426945       -1.9239630274        0.8481227593
 H          3.2443681485       -1.3775142063        2.2002988985
 O          3.4250303844       -2.6082416977       -0.6389446585
 H          2.8661980088       -3.3633423010       -0.3557718224
 H          3.8650907103       -2.8963791922       -1.4581683660
 O          1.1604340264        0.2920741403        5.9421095163
 H          0.3129566918        0.6623257042        5.6513965946
 H          1.7668887243        1.0594890696        5.9927404745
 O          3.3719382418        6.5967933841        0.0089059761
 H          3.8601559348        6.0391589859        0.6383854682
 H          2.4563357789        6.6252112111        0.3329954279
 O          8.1880394855        0.9688410530       -1.3890139878
 H          7.4571128892        0.3151424792       -1.4760565093
 H          8.9084676499        0.5042470734       -0.9629142460
 O         -1.3465031577        3.2674963381        1.3757182261
 H         -1.7518453099        3.9627081609        1.9052157498
 H         -0.5311846025        2.9890016872        1.8362395724
 O         -5.6632858214        1.0168076287        0.0695733572
 H         -5.1501193250        0.7737489174       -0.7258736060
 H         -6.3452522559        0.3148590095        0.1219291725
 O         -5.9349398202       -0.0697577997        2.9981873232
 H         -5.4796857659        0.5671881319        3.5827320672
 H         -6.6593732781        0.4356511901        2.5887050422
 O         -2.3054283966        5.1100789354       -2.9069534631
 H         -3.2596283587        5.1457212822       -2.7710561351
 H         -1.9301522220        4.8564966138       -2.0500584289
 O         -3.9825763274       -3.8328217799        3.7116909532
 H         -4.9294173548       -3.6403157917        3.8414680787
 H         -3.9338706945       -4.0413812474        2.7569598202
 O          0.6393048324        3.8009292631       -4.9904667768
 H          0.9414058903        4.6012241798       -4.5411335960
 H          1.4227637843        3.3142262041       -5.3325407120
 O         -6.6384649678        3.5694241753       -0.1389443898
 H         -6.3035517121        2.6470542275       -0.0957112860
 H         -7.5842367626        3.4868099188       -0.2686055749
 O          7.5178439067       -1.8772440247        0.9176156372
 H          7.0547386384       -1.0180054610        0.9279198466
 H          7.0887164944       -2.3903781385        1.6405608605
 O         -2.4140244616        3.4871677298        4.8486155794
 H         -2.5259478264        4.1382583385        4.1352230372
 H         -3.2485036890        2.9848479154        4.8804875679
 O          0.8126208815        0.0100423066       -4.2473883347
 H          1.1741569162       -0.0476345220       -5.1520812661
 H          1.5218832660       -0.4345120779       -3.7000764737
 O          3.7433604975        2.4361585596        0.4347316865
 H          2.9601490718        2.7214064010       -0.0825020781
 H          4.0260556822        1.6055624649        0.0261790883
 O         -4.3671438510        2.4148312545       -3.9758326274
 H         -3.9078256303        2.8220539692       -4.7169431924
 H         -3.6584246204        2.1761153857       -3.3435272127
 O         -7.9768111733        1.5376148032        2.0620091875
 H         -8.1598660156        1.5726405290        1.0908172234
 H         -8.7945516255        1.2553215652        2.4721257274
 O         -4.0464322107        2.3153466634        1.6585678310
 H         -3.2753347026        1.7317319639        1.8582595310
 H         -4.6736956426        1.7633448187        1.1415184558
 O         -6.8995107362        1.8670148772       -2.5542736263
 H         -6.1283521251        1.2780409289       -2.4771981699
 H         -7.2574134047        1.6990206167       -3.4264910782
 O         -7.3870289118       -0.9912940470       -0.3000166397
 H         -7.2437831252       -1.8696997059        0.0896684945
 H         -7.2752352823       -1.1008695710       -1.2650300803
 O          1.7985206284        3.2604912446       -1.1435700020
 H          1.3373093454        2.7360339465       -1.8362971168
 H          2.3283624392        3.9479641374       -1.6105373932
 O          4.4231113103        4.7241408935        1.7244069756
 H          5.2756688207        4.5638404469        2.1560432055
 H          4.2579498160        3.9255148007        1.1902002264
 O          5.8912502594       -3.0212104273        2.6820542231
 H          5.1762670784       -2.4210889421        2.3632684199
 H          6.2255200556       -2.5941547640        3.4977894181
 O          4.2340776235       -2.1205847796       -5.1211786682
 H          4.5247577182       -2.8038702449       -4.4895825948
 H          4.8626060885       -1.3856347529       -5.0053877589
 O          4.2277230016       -1.1849084220        5.8639113125
 H          3.6893963497       -1.0015659466        5.0514794249
 H          3.6988522234       -1.7904084549        6.3878566984
 O         -3.1678331202        3.8487079304       -0.5125202703
 H         -3.9746216059        4.1082903134       -1.0023355218
 H         -3.4296170291        3.3731824616        0.2916285757
 O         -2.0386790911        3.3983707790       -5.0247766227
 H         -1.1414313802        3.5579256406       -5.3479819985
 H         -2.1332325017        4.0091155141       -4.2654668902
 O          5.9318948080        0.3512667900        1.2830978968
 H          5.1357668013       -0.2236016112        1.3629043087
 H          6.1324813464        0.6313249091        2.1888628152
 O          1.9703808243        4.9451783514        2.8672711437
 H          1.5198754881        5.5108950177        2.2192087075
 H          2.9087794372        4.9188269601        2.6007715413
 O          1.5846200920       -2.5633464803        2.2304059018
 H          1.9302663937       -3.1276815121        2.9451167984
 H          1.0443010164       -1.8891243766        2.6793497950
 O          3.7128314781        0.0466025040       -0.8966164341
 H          3.4351825820       -0.8909720448       -0.9260996305
 H          3.4878992576        0.4219655071       -1.7784412461
 O          6.2027367532        1.4392671041        3.8028433680
 H          5.8903506629        1.4749480571        4.7503291050
 H          6.5891289733        2.3005362743        3.5922031356
 O         -2.3847635261       -2.2809054793       -1.5310884937
 H         -1.7042092933       -2.1416359234       -2.2263321857
 H         -2.4420160743       -1.4711911768       -0.9864960238
 O          3.3854353361       -5.7351860809       -2.0561106692
 H          4.1432863586       -6.0305639256       -1.5188092877
 H          2.7510593473       -5.4266058621       -1.3800467952
 O          5.1073232052        1.4036993171        6.1707966744
 H          4.8319207438        0.4727692575        6.2516671806
 H          4.2816449844        1.9115983703        6.1245463162
 O         -0.3963899052        4.6567819393       -0.6782548598
 H         -0.9695110155        4.1601885039       -0.0458638297
 H          0.3964551881        4.0802714015       -0.7840183236
 O          0.7449710105        6.4170117494        0.8902623987
 H          0.2776911452        5.7779902042        0.2839940323
 H          0.2080176466        7.2069664378        0.9262425873
 O         -4.3698895697       -4.1517923127        1.0907004201
 H         -4.4630991070       -3.1797712220        0.9977172750
 H         -5.2374499691       -4.5176433806        0.9027956754
 O          0.6342459071        4.3127370916        5.2764825967
 H         -0.3120273802        4.1728193857        5.1817799119
 H          0.9717427305        4.6891374470        4.4510348118
 O         -1.9477977927        0.6835702342       -4.5910609843
 H         -1.0070331700        0.4805848643       -4.5737389427
 H         -2.0187262615        1.6296922545       -4.8145952928
 O          6.8501893364       -3.3832295732       -1.0647321210
 H          7.1231180834       -2.8405954936       -0.2611748596
 H          7.6520885834       -3.8064263925       -1.3712850042
 O         -4.0555328593       -5.9545473471       -1.7389172519
 H         -3.7079490137       -5.9180327653       -2.6375966303
 H         -3.3534982503       -5.5928268456       -1.1709365801
 O         -2.7039540431        5.3367133422        2.8007380645
 H         -2.6056437565        6.2418164613        3.0948177291
 H         -3.6068653425        5.2556865263        2.4331943180
 O          1.4991352099       -5.6998745220       -4.2032158397
 H          0.6943508765       -5.8583593516       -3.6940274127
 H          2.2248332778       -5.7956329063       -3.5716520621
 O          1.5469576660       -2.4154109414        6.3344055618
 H          0.6193320670       -2.6836328600        6.3740664668
 H          1.4998453841       -1.4461210329        6.2759072314
 O         -2.3312481329        0.5153991234        2.4418541481
 H         -1.7202039862        0.9534262892        3.0640230046
 H         -2.7535376141       -0.1829739871        2.9834214892
 O          2.1479436439       -0.6550681202       -6.4744197223
 H          1.6110904725       -1.4399404979       -6.6330984563
 H          2.9902253618       -1.0035669893       -6.1498616108
 O         -0.7083780264       -5.5043868040       -2.4373533407
 H         -1.0699878357       -5.4872250251       -1.5413525346
 H         -1.4452163885       -5.2384331147       -3.0196685025
 O          2.6417914423        2.4850889259        5.5399069297
 H          2.8818225713        2.4086397613        4.5999651035
 H          1.9748380938        3.1923499203        5.5933081831
 O          5.3721878012       -5.6822656951       -0.1975077991
 H          4.9788746714       -5.6379938919        0.6820092911
 H          5.8386777232       -4.8447872152       -0.3287278710
 O         -3.4937189135       -1.3529172661       -5.3765839369
 H         -2.9008827826       -2.0038499552       -5.7770488775
 H         -2.9235466339       -0.5977360660       -5.1164414549
 O          6.5680788342        2.6152391883        0.0211826430
 H          7.3037352631        2.2531224818       -0.5036154705
 H          6.1756894717        1.8159129326        0.4354738508
 O          4.0202385966       -4.9794838279        2.3045869194
 H          4.7583305820       -4.3670875367        2.4868506668
 H          3.4285094189       -4.8928523873        3.0630528835
 O          0.1656336354        2.2158734556       -2.9133245179
 H          0.2260927917        2.8675981513       -3.6486807226
 H          0.4671818187        1.3781050436       -3.3134966496
 O          2.6748545336       -0.5253008659        3.8361615685
 H          1.9280107695       -0.3375482216        4.4306815892
 H          2.9662370311        0.3382448994        3.4868284028
 O         -6.0613272683       -4.1802486305       -1.7986622095
 H         -5.4267658624       -4.9286275786       -1.7347886662
 H         -5.5652814960       -3.4811321975       -2.2537137788
 O          6.1489059175       -0.7386102646       -1.6907382249
 H          6.2631953586       -1.6815012869       -1.5044984233
 H          5.3217851038       -0.4468057706       -1.2464468157
 O          1.4949906407       -3.2915024280       -5.4716331294
 H          1.4096029627       -4.1620174564       -5.0321683711
 H          2.4427912807       -3.1318603503       -5.4844012561
 O          5.6221079691       -0.0108464102       -4.2093287051
 H          6.2091042163        0.7706799325       -4.3066984414
 H          5.8701576361       -0.3867894123       -3.3390659071
 O          3.6278320146        1.8700492784        3.0521652157
 H          3.6160745653        2.0596751351        2.0944866522
 H          4.5620862093        1.7225644643        3.2904019283
 O          5.0802728111        3.2603003737       -2.2139697571
 H          4.5737444954        4.0840915070       -2.2361956979
 H          5.4672823928        3.1616586674       -1.3235665465
 O         -2.4041223326        1.9100528121       -2.0751722543
 H         -2.6071998244        2.6892562589       -1.4977676974
 H         -1.4900319409        2.0282104582       -2.3992765918
 O         -1.4552018606       -3.2467354690       -5.7862838662
 H         -0.6528069243       -3.5702662213       -6.2016024157
 H         -1.1362812878       -2.8077317840       -4.9584485950
 O         -4.4807307004       -1.4943851909        1.1644777564
 H         -4.1013400024       -0.8848531082        0.5136706583
 H         -4.9941660113       -0.9616827252        1.7964008140
 O         -4.4245496983       -2.4398852033       -3.1362031159
 H         -3.6601311195       -2.4074919118       -2.5082076863
 H         -4.1141091750       -2.0623613657       -3.9907776351
 O         -5.8197672374        0.2013667797       -4.8750774397
 H         -5.1539483949       -0.3790767112       -5.2646279173
 H         -5.3308113915        0.9878729160       -4.5710081988
 O         -7.1487810007       -1.2774414783       -2.9952437214
 H         -7.0276056629       -2.1889779609       -3.2646146898
 H         -6.7225414641       -0.7262747022       -3.6837156261
 O         -0.0641791878       -4.6146872849        1.6083399973
 H         -0.8013749437       -4.4836327856        0.9835130734
 H          0.3339281904       -3.7353044715        1.7806630164
 O          2.6370192466        2.2008140167       -5.6452107185
 H          2.5096393749        1.4245164118       -6.1970788694
 H          2.9113738306        1.8747512163       -4.7627831891
 O         -2.0995939733       -4.5975543255       -0.2355375309
 H         -2.1107746277       -3.7231576169       -0.6831349393
 H         -2.8314639061       -4.5317795219        0.4037294049
 O         -0.7357950304        1.4770681946        4.3858976928
 H         -1.3339324406        2.1874090779        4.6966421823
 H         -0.0435367830        1.9221629214        3.8461565185
 O          6.6431752225       -1.3806337289        4.6451330813
 H          5.8541440691       -1.3914855149        5.2162588401
 H          6.7286806600       -0.4706583242        4.3417088660
 O         -1.1161104176       -2.7134829951        5.5992563687
 H         -1.9914193466       -2.3179167320        5.5225408478
 H         -1.1525461932       -3.5586274756        5.0901338402
 O          2.5960960499       -1.4041873049       -3.0458067882
 H          3.1755374761       -1.6434130279       -3.7881154763
 H          2.1570509554       -2.2299547018       -2.7752317673
 O         -4.7100598867        2.0277804059        4.2680085846
 H         -4.4008041131        2.1786735320        3.3513781735
 H         -5.5208168411        2.5766447579        4.3378649234
 O         -5.1933202873        4.7173613742        1.9014683990
 H         -4.7826325985        3.8312585162        1.8678043569
 H         -5.7473259156        4.7312292495        1.1071398398
 O         -1.8053832879       -2.3688287223        1.6249066499
 H         -1.3489150166       -1.9190362454        2.3542055813
 H         -2.7125618777       -2.0420739490        1.6067878182
 O         -2.8612828015       -4.7222044130       -3.9696012515
 H         -2.4130573719       -4.3682173137       -4.7590673211
 H         -3.4882689206       -4.0334571255       -3.7007077137
 O          0.5306788037        5.8539424728       -3.0996490912
 H          0.1983067015        5.4505912274       -2.2826533598
 H         -0.2572981252        6.1908127929       -3.5327901843
 O         -7.0973057739       -3.6065011913        0.5132244026
 H         -6.7065952528       -3.8127700567       -0.3850479824
 H         -7.9496874097       -4.0408895126        0.5333766926
 O         -8.6339763456        1.4109828799       -0.5187672764
 H         -8.0580280684        1.6455884894       -1.2777776707
 H         -8.5691799409        0.4457313044       -0.4815209891
 O          3.5260988163        1.3239180116       -3.2371215284
 H          4.2180893196        0.7756559349       -3.6726542243
 H          4.0149374543        2.0963715909       -2.8869460410
 O          2.2358207445       -4.8325438384        0.2204390894
 H          1.3600017570       -4.8948384743        0.6477108597
 H          2.8794945847       -4.9565295466        0.9424352137
 O          4.6828118586       -3.5885048479       -2.8742710952
 H          5.5220840246       -3.6924770816       -2.4111101944
 H          4.1733933866       -4.4220917495       -2.7155411556
 O          0.8902678266        2.5402890569        2.6465146521
 H          1.3901691557        1.8454581021        2.1824458708
 H          1.4401628230        3.3463039882        2.7244503304
 O          2.0958610937       -4.1770255184        4.3304554156
 H          1.2914957939       -4.7027311697        4.3549909886
 H          2.0234966696       -3.5402374073        5.0722546896
 O         -2.7262787854        0.0266563678       -0.2162452045
 H         -2.5600314318        0.7726226231       -0.8265164845
 H         -2.3610241550        0.2490104229        0.6522010401
 O         -6.4729728739       -2.8144437174        3.2826091151
 H         -6.3608906703       -1.8517117156        3.2656665874
 H         -6.6746499974       -3.0695360565        2.3737396418
 O         -4.6830557058        0.1447709437       -2.2317082470
 H         -4.8233819770       -0.7767610018       -2.5155307941
 H         -3.8005207034        0.4050360543       -2.5128280634
 O         -5.1118051091        4.4096101827       -2.2540893071
 H         -5.0620824195        3.6900509273       -2.9126029217
 H         -5.8537516779        4.1732690537       -1.6726231416
 O          0.3611388101       -1.6252952544       -0.3065763745
 H         -0.2711758119       -1.9586484596        0.3439965445
 H          0.0553778950       -0.7419332155       -0.5557287139
 O          1.8322976903        0.5375729211        1.0809614020
 H          1.5525699832       -0.3817955953        1.1554892238
 H          2.4660108930        0.5500314836        0.3442704741
 O         -0.4263356928        1.1664720028       -0.2121519162
 H         -0.9958661662        1.7941709162        0.2405145586
 H          0.4087003164        1.1607061344        0.2741396359
