  86
       -142.08543574
 H          0.8133835064       -1.2324829229        1.0336310272
 C         -0.2091862528       -1.5613346615        1.2234399173
 H         -0.2776440036       -2.6403291331        1.0500808543
 C         -1.1547048220       -0.8233834149        0.2745847418
 H         -2.1904338395       -1.0011717288        0.5666813205
 H         -0.9952325325       -1.2301997328       -0.7222837989
 N         -0.9435007307        0.6132625385        0.2116514421
 H         -1.2174208472        1.0619542839        1.0791686512
 H          0.0457627420        0.7997611078        0.0741697692
 O         -0.4734810045       -1.2733119825        2.5917358098
 H         -1.3667439537       -1.6062900274        2.7804074830
 O          0.5926393953        3.4723677255        0.6934527209
 H          0.5097544879        2.8525830913        1.4292065497
 H         -0.3209919270        3.7333708673        0.4531629197
 O          5.4744026070       -1.0543092986        0.7280781528
 H          5.5150108154       -0.8935766836       -0.2406002811
 H          4.7496937138       -1.6898235996        0.8536701229
 O          4.3483462950        1.2298105056        1.3178266641
 H          4.5626834597        1.7826890708        0.5510428976
 H          4.8599377621        0.3846002503        1.1883579015
 O         -3.0459504630       -0.6260061359       -3.0545074648
 H         -2.8791376398        0.2000719362       -2.5285740904
 H         -2.5401588465       -0.4940512870       -3.8878893007
 O          2.9101806275        1.0959115570        3.5554865631
 H          3.4360329737        1.4324984434        4.2812135916
 H          3.4450988755        1.2282701070        2.7434188852
 O         -3.4991761394       -3.1781702328       -0.0101565434
 H         -2.7661692185       -3.1576738383       -0.6497492168
 H         -4.1979793191       -2.6464460185       -0.4235408937
 O          5.0534981903       -0.3806938735       -1.8411153609
 H          4.1811952102       -0.8111617815       -1.8852517060
 H          4.8834254211        0.5673493567       -1.7343447045
 O         -1.2262343886       -0.2307892300       -4.9755079095
 H         -0.5172621370       -0.7088415045       -4.5165238601
 H         -0.9853557135        0.6986000746       -4.8853786261
 O         -2.6265498653        1.5250429121       -1.5639241357
 H         -1.9644132168        1.1798019899       -0.8842932631
 H         -3.4873940589        1.4833993494       -1.0974712789
 O          0.2295727453        1.4778356808        2.9074755516
 H          1.1535067400        1.5034491353        3.1982742519
 H          0.0229448512        0.5344873795        2.8123499717
 O         -5.1033769440       -1.4806060192       -1.5313383684
 H         -4.4238145795       -1.1833346870       -2.1710030544
 H         -5.9216557249       -1.5634404063       -2.0218080355
 O         -1.8191194856       -2.8042842073       -2.2066335720
 H         -2.3107714337       -1.9949217399       -2.5112509645
 H         -1.9634621588       -3.4743273005       -2.8763991665
 O          0.3914335343       -1.1946391502       -2.9258138841
 H          1.2444393840       -1.3584334072       -2.4800960680
 H         -0.2145486919       -1.8764992357       -2.6003400186
 O          1.8338971806        2.6912804588       -1.5121686477
 H          1.1383285354        2.4229950715       -2.1453322615
 H          1.3813840239        3.1410120867       -0.7608058088
 O          2.5784100738       -1.5269040527       -1.3530473699
 H          2.7863616859       -2.1977384579       -0.6905768474
 H          2.3498965376       -0.7253642919       -0.8143740691
 O         -0.1430676442        1.5649950947       -2.9897374186
 H          0.0671659422        0.6248085893       -2.8484780902
 H         -0.9991656023        1.7260227832       -2.5739863721
 O          2.2708758591       -1.5947873137        3.3373840988
 H          2.5545073745       -0.6705638265        3.4544232743
 H          1.3080279178       -1.5667037653        3.2646467358
 O         -2.3630689772        2.4169833261        2.4121569372
 H         -1.5052602529        2.2517979947        2.8270255543
 H         -2.9112113116        1.6327028419        2.5451015244
 O         -2.0027303536        3.8359925252        0.0516531111
 H         -2.3198332429        3.4554506925        0.8867692561
 H         -2.2876317867        3.2338442202       -0.6485924546
 O         -3.0674452612       -2.4484738235        2.4999412492
 H         -3.2003062068       -2.7503833168        1.5634933734
 H         -3.3593907864       -3.1724386342        3.0550392052
 O          2.0251725109        0.5769549673        0.1059721721
 H          1.9931647240        1.3245488041       -0.5313003286
 H          2.8078840351        0.7625712076        0.6624814753
 O          3.2673886038       -2.7250888689        1.1289430660
 H          3.5811763999       -3.5831603913        1.4150743431
 H          2.9034409423       -2.2885992785        1.9374642623
 O          4.4868212494        2.3406918691       -1.2393327057
 H          4.9795794432        3.0534462180       -1.6452859814
 H          3.5399891559        2.5222068570       -1.4140507208
 O         -4.0029359564        0.1041713417        2.5275428295
 H         -4.7185918159        0.1689428891        3.1606580300
 H         -3.6727737695       -0.8157324536        2.5538926338
 O         -4.7760196091        0.8981763498       -0.0794015160
 H         -5.0006893474        0.0391486020       -0.4679375213
 H         -4.4900688046        0.7255352774        0.8294128649
