  387
       -651.65313023
 H          0.6555041869        1.5932436861       -0.4990039225
 C         -0.0603283563        0.9660565263        0.0300908011
 H         -0.2834476171        1.4234636542        0.9916957253
 C          0.5277149909       -0.4147547496        0.2486949733
 H          1.3500052389       -0.3361907111        0.9522461699
 H          0.8870104049       -0.8162708883       -0.6918738133
 O         -1.2849425584        0.8933682740       -0.6675232862
 H         -1.1662580985        0.4503725565       -1.5311300114
 N         -0.5265741217       -1.3058650065        0.7635406992
 H         -1.3637943348       -0.7669216769        1.0687575450
 H         -0.2084822657       -1.9198937798        1.5440380441
 H         -0.8379232007       -1.9362789289        0.0036422924
 O          4.4542299026       -0.9698365077        1.1599833923
 H          4.8453375958       -0.0751925709        1.2160395184
 H          5.1969571109       -1.5909358770        1.0606803816
 O          3.1407087387        2.8197176222       -3.4991120441
 H          2.2453530884        2.5752292321       -3.1824760979
 H          3.6097180803        3.2360573579       -2.7588136490
 O         -0.4119704450       -5.2228764587       -2.3311472139
 H         -1.0227028219       -5.4929256029       -1.6296300339
 H          0.4503884659       -5.5800305870       -2.0707739323
 O         -2.1555025817       -3.4933991657        0.9762540546
 H         -2.9484666365       -3.4490650268        1.5329934783
 H         -2.0800108768       -4.4051970503        0.6254922376
 O          5.5755612836        1.4685822474        1.0919450469
 H          5.1215179716        2.3236180888        1.2194948615
 H          5.7902472853        1.4221387314        0.1458407635
 O          3.0427203006        2.1943908188       -0.3999159541
 H          2.4397991240        2.8230816943       -0.8263589085
 H          3.1111713195        1.3781293032       -0.9210462182
 O         -1.3927362716       -0.4315252910       -3.0450288926
 H         -0.8814389942       -0.3016446263       -3.8580213716
 H         -2.3228701101       -0.5686928429       -3.2942536610
 O          2.6627464284       -0.8396769212       -5.2029603643
 H          3.4593058311       -0.4013833866       -4.8472607244
 H          2.9230615077       -1.7520985836       -5.4726786909
 O          0.6985218022        1.8453180022       -2.8008396750
 H          0.8836711024        0.8821478748       -2.7903338764
 H          0.2062828857        2.0054581927       -3.6249924160
 O         -2.3150500196       -1.5743903889        3.7770011024
 H         -2.6638522023       -1.2055592491        2.9477815401
 H         -2.4646007573       -2.5471579586        3.6941280451
 O          0.0440628711       -0.2440109495       -5.4722219412
 H         -0.3015149991       -1.1564958408       -5.4897445080
 H          1.0081786867       -0.3396973672       -5.5327422049
 O          1.4816492626       -0.7507225509       -2.8391301409
 H          1.8548376207       -0.7812518996       -3.7474838003
 H          2.2472539391       -0.5713008855       -2.2496041998
 O         -5.2803680443        2.6070603548       -0.0658865850
 H         -4.3639275020        2.5903710187        0.2550530946
 H         -5.7024376411        1.8172792028        0.3098049969
 O          1.7863364409       -6.7278274375       -1.3966737674
 H          2.7051823292       -6.3688156719       -1.3693159364
 H          1.8349232625       -7.5680524658       -1.8508293593
 O          2.4435317718        5.2180545789        2.2247981634
 H          1.9161480686        5.7784891436        1.6005650708
 H          2.9827419601        5.8238122555        2.7340984499
 O         -2.9618850679       -0.3156096895        1.4626142812
 H         -3.3872614664       -0.3343622823        0.5796728814
 H         -3.4206519688        0.3859060221        1.9545898466
 O          1.0527486255        3.0438747906        2.9611793965
 H          1.6106022274        3.8310762904        2.8279774991
 H          0.8551326572        3.0040207975        3.9202106572
 O          2.7961459503        1.2727046017        2.1181071603
 H          2.0427938455        1.8033509595        2.4461091025
 H          2.9613295402        1.5926730013        1.2088222637
 O         -4.0780090235       -0.1965534060       -0.9426428983
 H         -3.6122189215        0.5091013237       -1.4300406270
 H         -5.0173247583       -0.0147886115       -1.1294024995
 O         -0.2030928953       -3.0457758888        2.8067561927
 H          0.4406726924       -3.7569412650        2.9630486605
 H         -0.9718131837       -3.4584692200        2.3823435927
 O         -2.9484975260        1.2299453797        5.2274788743
 H         -2.1829378645        0.9573996036        5.7628930538
 H         -3.2395952176        2.1284698948        5.5184577444
 O         -0.4454161168        0.4905347215        6.0099769508
 H         -0.1309151041        0.2836009901        5.1043910843
 H         -0.4661438240       -0.3667267242        6.4557916102
 O         -0.6175973809       -2.6442478036       -1.5772274995
 H         -0.7953609848       -1.9428152734       -2.2259847098
 H         -0.5996177458       -3.5040121794       -2.0392338242
 O          2.2049880747       -1.7969721643        2.3555879812
 H          3.0677764611       -1.4823352446        2.0238016496
 H          1.9252166064       -2.4927908390        1.7370929532
 O          2.7042576921        5.4866312217       -4.3226965847
 H          3.0291555228        4.5739964532       -4.3043473364
 H          1.7405918666        5.3963147296       -4.2371772716
 O          4.6097397007       -4.0068121243       -3.4204795881
 H          5.5323193577       -3.7046683841       -3.4004984835
 H          4.5886792801       -4.8333267503       -2.9186378076
 O        -10.0266314538       -0.8606777874        0.4931074790
 H        -10.9238921547       -1.0985540764        0.7261290966
 H         -9.4426708924       -1.5483066258        0.8890810803
 O          1.5510633485       -5.0783479834        3.3039424465
 H          1.1446702425       -5.6515216408        2.6310956332
 H          2.3912381957       -4.7883792114        2.8800344666
 O          5.9216454977       -5.6298183170        0.9550791983
 H          6.7570860674       -6.0872580378        1.0392441075
 H          6.1332536897       -4.6663181405        0.9340887723
 O         -1.8958392009       -5.9154490499       -0.1034685129
 H         -1.1092752587       -6.1560965101        0.4225309601
 H         -2.6949906174       -6.3531897037        0.2669378876
 O         -5.1042241614       -3.9877835282        5.2296195767
 H         -4.7841073067       -3.0649000641        5.4416693892
 H         -5.1476199703       -4.4449806561        6.0690855081
 O          4.8025292194        4.0799209126       -1.6183700102
 H          5.7403825254        4.3265903387       -1.5429490583
 H          4.3000569815        4.9297536067       -1.7111928267
 O          3.4626164575       -0.3078705706       -1.2223278185
 H          3.6077151150       -0.5972668168       -0.2987311604
 H          4.2466631494       -0.6683787591       -1.6887759959
 O          1.3253284095       -3.4330404774        0.2390356364
 H          2.2071312436       -3.4548120833       -0.1682323741
 H          0.7205037341       -3.2172968217       -0.4907492714
 O          5.6626684146       -1.5747267362       -1.8751891921
 H          6.2424233524       -1.2588202581       -1.1539111525
 H          6.1164701603       -1.3054630218       -2.6882345532
 O         -7.6394187473        3.8852440922        2.2641942482
 H         -8.0541311251        3.0997356089        1.8856983834
 H         -7.4560623044        4.4689325653        1.5093666741
 O          8.2205470250        2.1118754967       -0.3749760578
 H          8.5122354460        2.1565416971        0.5513954924
 H          7.8867236806        2.9953892293       -0.6022521456
 O          7.3301469275       -1.9053820068        3.2970253048
 H          6.6723668688       -2.3929683502        3.8139180861
 H          7.0569261674       -0.9717784600        3.3663251175
 O         -3.9617435197        4.0412203890       -4.9523594537
 H         -3.6923550964        3.1447823038       -5.1955284084
 H         -4.6414705753        3.9368311021       -4.2679110142
 O         -3.5440823632        5.0751940145        0.9802031247
 H         -3.1325239115        4.1943259595        0.8805621301
 H         -3.7974471701        5.3329328137        0.0723015060
 O          0.5914313641        3.0102658916        5.6049252620
 H          0.1612049012        2.1913481558        5.8991953838
 H          1.5146332406        2.9362919475        5.9055936078
 O          0.1298154559       -0.2395268889        3.4701504361
 H          0.9129075326       -0.7149403298        3.1524430422
 H         -0.6028565277       -0.8826599551        3.4906079091
 O          0.1653771120        4.6514034914       -3.7524252370
 H         -0.0495232441        3.9260294131       -4.3529824832
 H         -0.6659386807        5.1432260627       -3.6337588020
 O          1.9649069418       -3.4141721561       -2.6185206918
 H          1.7105516000       -2.4716952341       -2.6436830059
 H          2.9130269879       -3.4644017417       -2.7992769541
 O          6.6161703435        0.7140394789        3.3847399497
 H          6.8431823430        1.5059987703        3.8754340065
 H          6.3555893790        1.0213034171        2.4841150921
 O          3.2534649697       -3.3666566471       -5.7195300713
 H          2.4224449942       -3.8536968750       -5.6365394446
 H          3.8029469833       -3.6514628907       -4.9688391528
 O          3.8009333878       -4.2296331336        2.1260589775
 H          4.3971810758       -4.9460419887        1.8808339927
 H          4.2628931704       -3.6966580832        2.8062142183
 O         -4.5291352635        1.1657189094        3.0858167018
 H         -3.9728825715        1.0905761837        3.8813310313
 H         -4.6882086853        2.1338512824        2.9599239008
 O         -3.4629440975       -6.1300062748       -2.6354704865
 H         -2.9181067572       -6.4764521998       -1.9240050673
 H         -4.2609928434       -5.7748842084       -2.2089375281
 O         -0.7226791025       -4.9695202772        5.2289400160
 H          0.0806386828       -5.1658676896        4.7358555916
 H         -0.5925356170       -4.1027077633        5.6585052727
 O          2.0885523776       -2.7399451792        4.8488924703
 H          2.1616136129       -2.3387085617        3.9518900528
 H          1.9736953346       -3.6807798701        4.6833518101
 O         -4.2954860836       -1.5476723640        5.6759940611
 H         -3.5579434358       -1.3439878260        5.0696671719
 H         -4.9689060998       -0.8678163927        5.5511957341
 O         -0.3966547785       -2.2941899930        5.8413196893
 H         -1.0201700577       -2.0905965824        5.1311609191
 H          0.4886458804       -2.3690746935        5.4317726445
 O          4.2565855469       -5.7617651903       -1.2742357091
 H          4.0377095986       -4.8262052041       -1.0370537210
 H          4.8653583430       -6.0311746813       -0.5713316477
 O         -3.3555085002        1.9221638124       -2.3825194676
 H         -3.1623328462        1.6416994157       -3.2874267741
 H         -2.6499637900        2.5424506664       -2.0985869265
 O         -4.6479395178       -2.8320535731        1.8514482732
 H         -5.2629857804       -2.4949484381        2.5308924937
 H         -5.0667985387       -2.5911644121        1.0039258054
 O         -1.4967256707        1.9248782511        3.1268111487
 H         -2.0611367346        1.6393503187        3.8798546102
 H         -0.7518103188        1.3031318061        3.1278826926
 O          6.3230789832       -2.9760629539        1.0113054842
 H          6.7972921217       -2.6576656209        1.8028820053
 H          6.9813865436       -2.9880136084        0.2775416187
 O         -1.3279914065        4.4216174116        4.2035571832
 H         -0.6564271847        4.2763195604        4.8813199263
 H         -1.3453978095        3.5867074171        3.6903175405
 O         -5.9189296360        1.0846480009       -4.3321574037
 H         -6.2615010418        1.9774551970       -4.4166062952
 H         -5.9950600833        0.8628303831       -3.3681414126
 O          3.9896935994        7.2068344517        0.6441660803
 H          3.8626120699        6.9307738173       -0.2772836042
 H          3.1514481705        7.6112443180        0.8815569179
 O          5.8065012265        1.5449886524       -1.6884165784
 H          5.2788960343        2.3511092874       -1.5909641867
 H          5.3524312887        1.0117508284       -2.3695834461
 O         -1.3319728377        6.1209017251        2.0833794496
 H         -1.3230489678        5.6865635242        2.9548634577
 H         -2.2257532960        5.9528221487        1.7236788380
 O         -6.2509770846        0.3586316877        1.1154471859
 H         -5.6543841485        0.3430595682        1.8735370504
 H         -6.1796326783       -0.4972195628        0.6378979474
 O         -6.6493811129        4.8487342545       -0.0641184983
 H         -6.0287077334        4.0774905425       -0.0151105473
 H         -6.1374398608        5.5806651893       -0.4124267321
 O          0.8308956584       -4.4288252042       -4.7637112590
 H          0.2798915429       -5.1567471075       -4.4657081910
 H          1.2202709018       -4.0635075356       -3.9244892458
 O          0.5810886925       -5.9152986797        0.9214549112
 H          0.7945005311       -4.9758028524        0.7058465791
 H          1.0371115116       -6.4130455032        0.2258043543
 O          3.9241523628       -3.2616429440       -0.5458414314
 H          4.5638419346       -2.7357534685       -1.0560931410
 H          4.2400357615       -3.3084249273        0.3678632039
 O          7.3350705270       -3.4374817779       -3.5443533406
 H          7.7888379430       -3.9115353351       -4.2406300007
 H          7.4335697660       -2.4802232512       -3.7335606882
 O         -2.7643457773       -3.7153001310       -3.4907506959
 H         -2.9114314871       -3.3504012798       -2.5847286974
 H         -2.7966787109       -4.6830156578       -3.3484904919
 O         -6.4355854340        0.0663317478        4.6626324517
 H         -7.2759464506        0.5615415326        4.6074622811
 H         -5.8188340003        0.5470027110        4.0783955673
 O          4.8538490198       -2.7815838574        4.1388703077
 H          4.3119711034       -3.0422572531        4.8889986174
 H          4.5674592954       -1.8577662340        3.9420005880
 O         -6.2575818077       -1.9825241992       -0.1139693792
 H         -7.1144783199       -2.2377622721        0.2807044796
 H         -6.3298157899       -2.1271103738       -1.0759953205
 O         -5.4030246324       -5.2687297309        2.6232576597
 H         -5.4527202365       -5.2032724361        3.5800141085
 H         -5.0209453420       -4.4094835945        2.3230937768
 O         -7.3688826056       -5.0247484131        0.7512425998
 H         -6.8088316796       -5.2667339803        1.5090816234
 H         -6.7558608795       -4.9117077560        0.0077115515
 O         -3.9352547565       -1.2035696731       -3.7738682993
 H         -4.4446939510       -1.0731746409       -4.6034066184
 H         -3.5398292446       -2.0828205383       -3.8490281643
 O         -0.7317004036        2.2981257362       -5.0607959931
 H         -1.6882926778        2.1627136020       -5.0430295379
 H         -0.3751635283        1.4833627586       -5.4521493504
 O          4.4774388499        3.9002627559        1.0766396765
 H          4.3521087295        3.8566372352        0.1083265581
 H          3.6605845556        4.2748910183        1.4574097067
 O         -2.7725866665        2.5211178951        0.8530765309
 H         -2.3412318413        1.9387474969        0.2051175305
 H         -2.3494107324        2.3302419128        1.7116812580
 O         -4.1622837795        5.5582820787       -1.6008613027
 H         -3.4376481355        5.6813563243       -2.2345063863
 H         -4.6969015668        4.8345740909       -1.9807124053
 O         -8.3350918952       -2.6728505084        1.4421462391
 H         -7.8517756296       -2.5209697742        2.2750895757
 H         -8.1684594419       -3.6152953557        1.2046690191
 O          3.1431585760        2.3970976036        6.2464312255
 H          3.5768292258        2.6491919873        7.0610167154
 H          3.0021195689        1.4221568141        6.2973059788
 O          4.5285272200        0.5981609822       -3.8930293458
 H          3.9727475036        1.4105321279       -3.8358776811
 H          5.2311003985        0.8035185638       -4.5321141297
 O         -8.0110418931        2.7087396440       -1.1379437809
 H         -7.7503743529        3.5943789295       -0.8388614963
 H         -8.4159281018        2.2883456742       -0.3592939852
 O          0.9774155836        6.8773985821        0.7895079294
 H          0.5915254606        6.6644019546       -0.0781058938
 H          0.2075340895        6.9058294873        1.3777961142
 O         -5.5031023123        3.4590399968       -2.7544128437
 H         -4.8167504514        2.8223333744       -2.4413420952
 H         -6.2925611529        3.2760016938       -2.2362333904
 O         -1.3689805363        3.5123503449       -1.6370433280
 H         -1.2112862771        3.5205618311       -0.6761293031
 H         -0.6414493258        2.9946324118       -2.0157625678
 O          4.1591538913       -0.2417510379        3.8865080678
 H          5.0319636049        0.1926603516        3.8208767233
 H          3.5981475812        0.1891669714        3.2133162858
 O          3.2579177086        6.1688536144       -1.8089315203
 H          3.1271263818        6.1779959005       -2.7830654591
 H          2.5085741371        5.6305783205       -1.4751186876
 O         -1.0946556608       -2.6771411646       -5.3125364408
 H         -1.6852118591       -3.0353995187       -4.6200774009
 H         -0.3312549115       -3.2946112673       -5.2962885868
 O          9.2771344598        0.4988294838       -2.2827087556
 H          9.7111367738       -0.2233835241       -1.8052505650
 H          8.9370891382        1.0898369562       -1.5835581931
 O          8.1339475255       -3.3277152551       -0.8668908357
 H          7.8033882093       -3.3976698078       -1.7759110871
 H          8.8276072059       -2.6513172527       -0.8687568859
 O         -5.4070058859       -4.6801018811       -1.2516858419
 H         -4.7289216723       -3.9775559550       -1.0972234057
 H         -5.9899283013       -4.2840813157       -1.9086095994
 O         -6.1403456561       -2.4462212544       -2.8016169152
 H         -6.8496906657       -1.9889631360       -3.2951909079
 H         -5.3416390459       -1.8947065701       -2.9388312196
 O          7.6301744345        2.6257832730       -3.3836116471
 H          8.4864170489        2.2186316710       -3.2265264679
 H          7.0404391679        2.2762312729       -2.6788626620
 O         -2.7557664965       -4.1874236646        3.6794099562
 H         -3.5644526856       -4.2546784722        4.2053270943
 H         -2.0434766774       -4.5883961798        4.2215162875
 O          8.9157695189        2.2242483601        2.2650568720
 H          8.1459106950        2.7394638225        2.6180341174
 H          9.7008351138        2.7044815530        2.5270056674
 O          1.4760267392        4.2569578068       -1.2801899521
 H          0.9716177805        4.3832290908       -2.1026755456
 H          0.8431408328        4.2927786199       -0.5356842153
 O         -8.5231680550       -1.1896618481       -1.8048331557
 H         -8.9221070784       -1.1369613008       -2.6759479567
 H         -9.1996860284       -1.0145022323       -1.1331712630
 O          6.9353233445        3.6845599431        3.2281492201
 H          6.0098625902        3.4110732504        3.3919666360
 H          6.8727185004        4.5017793772        2.7170129841
 O         -2.5964473802       -0.8504657790       -6.7051165885
 H         -2.0124347585       -0.5579917432       -7.4052114764
 H         -2.1318856422       -1.5797173027       -6.2525465259
 O         -5.0317188575        3.7390829657        2.9215215685
 H         -4.5876574360        4.3056860349        2.2656977597
 H         -5.9945299089        3.8231420047        2.7639195659
 O         -3.7067007867        3.7388925402        5.3691846153
 H         -4.3264810229        3.8290083004        4.6278637458
 H         -2.8916734342        4.1772564005        5.0663938697
 O         10.2192008598       -1.4668816252       -0.5556261220
 H         11.0964276912       -1.8389173050       -0.4655561433
 H          9.9695170710       -1.1134276643        0.3191159283
 O         -2.3571618420        5.7363979884       -3.7117329855
 H         -2.8911627647        5.0831371575       -4.2282859702
 H         -2.4038028390        6.5622897575       -4.1929757408
 O          9.2812540443       -0.5286106025        1.8351056000
 H          8.8688186132       -1.0899448258        2.5040134031
 H          9.1444730712        0.3946902630        2.1059360393
 O         -0.2729458543        4.0195641222        0.7800956430
 H         -0.6301974952        4.8522841214        1.1535268948
 H          0.1267532743        3.5540791693        1.5320998406
 O         -3.3385974068        1.3057250907       -5.0986554572
 H         -4.2845902548        1.1383492922       -4.8914199662
 H         -3.0718826487        0.5610446868       -5.6664418477
 O         -8.5556090432        1.5865494541        4.0085850003
 H         -8.7367768708        1.4625724254        3.0611829337
 H         -8.4042602504        2.5275425966        4.1254098617
 O         -5.1928433198       -3.8667695676       -4.9713119216
 H         -4.3056071101       -4.0957066805       -4.6644362255
 H         -5.6709733736       -3.5660359994       -4.1788708075
 O         -5.2510023402       -1.4281343988       -6.0871676365
 H         -4.5011390824       -1.2758834875       -6.6721848853
 H         -5.2748326869       -2.3911570194       -5.9039859387
 O         -7.6676888908       -1.0535551243       -4.5546891016
 H         -7.5181827150       -1.5332474303       -5.3720636235
 H         -7.0765797390       -0.2797275067       -4.6169668692
 O          7.2421183699       -0.4841838881       -0.0371089359
 H          7.3891162712        0.4133865748       -0.3656434594
 H          7.9224233733       -0.6306573221        0.6344348311
 O          7.3485504633        4.6992400649       -0.8580931893
 H          7.9017241028        5.3115739432       -1.3412452327
 H          7.0563499827        5.1488074799       -0.0236618081
 O         -6.5103178882        0.5509592883       -1.8261179043
 H         -7.2023493036       -0.1428087468       -1.8157224107
 H         -6.9602757044        1.3653354141       -1.5323051483
 O         -0.7705007122        6.2216863613       -1.2365178395
 H         -1.0776094989        5.3420394148       -1.5137888005
 H         -1.5542822677        6.7531396944       -1.1023241531
 O         -4.2998914222       -6.7035494349        0.5988390173
 H         -4.6262444814       -6.3743211490        1.4532336794
 H         -4.8412910278       -6.2640454013       -0.0667638020
 O          6.2982203750        5.7343252793        1.3324792517
 H          5.7904517344        6.5445696508        1.1969587717
 H          5.6005618412        5.0255888988        1.2889110974
 O         -8.6625733132        1.3959800969        1.2214188252
 H         -7.7703952585        0.9752992705        1.2053578125
 H         -9.2766595284        0.6827719291        0.9758648585
 O         -6.6527659096       -2.2954946932        3.5450277570
 H         -6.4521306536       -2.9591853596        4.2151356088
 H         -6.6413868038       -1.4184689158        4.0012733500
 O         -3.5354965963       -2.7835908122       -1.1584178419
 H         -3.7547237359       -1.8281922909       -1.1438204462
 H         -2.9320265242       -2.9475955777       -0.4027955613
 O          6.6599770294        1.3078536846       -5.4206009521
 H          6.7004886430        1.7675585919       -6.2577815272
 H          7.0373607045        1.9183199117       -4.7294128980
 O          7.4556425022       -0.7858337746       -3.7876833033
 H          8.1257871134       -0.3125687291       -3.2448263293
 H          7.2250103181       -0.1939168081       -4.5160973987
 O          4.4428746749        2.7877487844        3.7793203534
 H          4.0074929057        2.7106842132        4.6390766794
 H          3.8972120593        2.2917722088        3.1427501241
 O          2.9166543164       -0.2368797666        6.2421569507
 H          2.2816309530       -0.9562044101        6.2458454210
 H          3.3909605869       -0.3096260440        5.3879613542
