  192
       -320.54867568
 H          1.3419188333       -0.0427604685       -2.0225274844
 C          1.3962682840       -0.1615020329       -0.9448741569
 H          2.4234186720       -0.3945066810       -0.6619355497
 C          0.4553135855       -1.2718447822       -0.5109174039
 H          0.5265360430       -1.4115492054        0.5670742145
 H          0.7008466115       -2.1951390950       -1.0277172333
 O          0.9886653575        1.0724609906       -0.3881525068
 H          1.0045228518        0.9898476467        0.5884652096
 N         -0.9334497059       -0.9051559754       -0.8356977852
 H         -1.1392637710       -0.8557344501       -1.8556247261
 H         -1.1593715205        0.0054487172       -0.4098331047
 H         -1.5544014330       -1.6488972106       -0.4135620896
 O         -1.3233776314       -5.4481379177       -1.7300133993
 H         -1.4342472113       -6.3099923843       -2.1317430263
 H         -2.2149516873       -5.1479979471       -1.4716826738
 O         -7.1573250563       -1.4708713677        0.3145044300
 H         -7.9328082956       -1.9078166632        0.6663334168
 H         -6.3688629832       -2.0421124262        0.5556887318
 O          3.3727007581        0.7238156542        3.8634221603
 H          3.6085898954       -0.0845100146        4.3266629075
 H          2.8792221597        1.2906577782        4.4947984788
 O         -2.0342408992       -2.9097506624        0.4517990882
 H         -2.6825462823       -3.4462328504       -0.0507395326
 H         -1.2889879075       -3.5160442493        0.6350350943
 O          4.1829972109        4.2892321722        1.5608838585
 H          4.5012626835        5.1161185932        1.9237452824
 H          3.8605401396        4.4784591588        0.6596019588
 O         -2.2631163304       -0.7797583500       -3.1641903944
 H         -2.0582713589       -0.5520188319       -4.0940567313
 H         -2.9455960474       -0.1514795743       -2.8709781666
 O          0.3898607743       -3.4253567259       -2.6667512948
 H         -0.3008233167       -4.0964818952       -2.5994135234
 H          0.1874704838       -2.8228463388       -3.3997796079
 O          5.5214512388       -3.3611291396       -1.0392811600
 H          4.7916972066       -3.4414845586       -1.6694641252
 H          6.1835070828       -2.7492155856       -1.3898690085
 O         -0.4499205877        0.6005657051        4.6808541642
 H         -1.3130455510        0.1760039717        4.8191571485
 H          0.1929748423       -0.0687027308        5.0151660044
 O          1.7786020807        2.3365317871        5.2943194710
 H          1.7187024212        2.9678672218        4.5606557601
 H          0.9262511627        1.8869851769        5.3367961149
 O         -2.2774593996        4.8111142150       -2.1209945982
 H         -2.1718059049        3.8359626753       -2.0721433465
 H         -1.5942803055        5.1146173898       -2.7280992179
 O         -3.5438671725        2.3924604251       -4.2403870010
 H         -3.9751070669        1.5868904460       -4.5302692711
 H         -3.1652897098        2.2021164884       -3.3601533044
 O         -1.6797268167       -0.0714544664       -5.6918710792
 H         -0.8814828103       -0.5985212491       -5.8038426052
 H         -1.4450406841        0.8467415157       -5.8729222683
 O          2.6423162867        1.8117666209       -3.2363217539
 H          2.9742838549        1.7697715743       -2.3193428459
 H          2.9980013459        1.0256575559       -3.6700514215
 O         -0.1379321146       -4.7873088074        0.6969370895
 H          0.7821345598       -4.4533650680        0.6701350172
 H         -0.3410468441       -5.1469106529       -0.1812251507
 O         -1.9320382671        2.6331883212        3.4568886536
 H         -2.8199827928        2.2695759216        3.5509372625
 H         -1.3447791978        2.0532198830        3.9593002803
 O         -1.5699512091       -0.7898632584        2.0982923167
 H         -1.6319282803        0.0632018312        1.6261909999
 H         -2.0613425151       -1.4423866612        1.5740207401
 O          4.7329448695        1.5549761341        1.7538699254
 H          4.2206033593        1.2319724355        2.5295532682
 H          4.7774197305        2.5152907004        1.8462822437
 O          0.9721666534        0.7987453225        2.2906661455
 H          0.3831080847        0.7064747664        3.0599088958
 H          1.5856457908        0.0352656273        2.3290827834
 O          1.1253870902       -1.4088633419        5.3159975842
 H          0.7904216960       -1.9850333163        4.6029902979
 H          2.0812879831       -1.5078215352        5.3073286527
 O          5.3598163460        0.3507017360       -2.5455131880
 H          6.0308223890       -0.1899980766       -2.0961592702
 H          4.9337632060        0.8933776337       -1.8541944909
 O         -3.9134410270       -3.0014622418        3.2332833333
 H         -3.6450362861       -2.2458197584        3.7821210336
 H         -3.1613838152       -3.6069025767        3.1985286685
 O         -5.4136000490        2.5544949734       -0.9382754829
 H         -5.4163635479        3.2765880683       -1.6107459485
 H         -4.7617477578        2.8413867246       -0.2694001110
 O         -2.0143702203        2.1285011408       -1.9877022994
 H         -1.9360965304        1.9010884759       -1.0447699717
 H         -1.2083675242        1.7899793244       -2.4301760106
 O         -2.4968392633        5.3268755389        0.5278848291
 H         -2.4215501702        5.3154727454       -0.4457087084
 H         -1.6211852448        5.1147132051        0.8792577371
 O         -4.9327527679        4.3586246342       -2.8151592890
 H         -4.6565211630        3.8024443744       -3.5579189840
 H         -4.1173455208        4.7912300398       -2.5150922873
 O         -5.8393287149        0.7726940474        1.1634575694
 H         -5.9403503648        1.4384106743        0.4654786618
 H         -6.4476300973        0.0462174915        0.9401567131
 O         -2.9821031159       -0.5760630627        4.3122752092
 H         -2.4548507794       -0.6530225705        3.4841207207
 H         -3.6349087789        0.1154352627        4.1381462121
 O          2.9867369550        4.4686996374       -3.7120809238
 H          3.6179338311        4.6459307469       -4.4092843738
 H          2.8949587828        3.4965064514       -3.6460991062
 O          2.5010637181       -1.3870345447        1.9749844880
 H          2.9301427947       -1.5514643850        2.8393358917
 H          3.2167741987       -1.1512987474        1.3448650109
 O         -4.9680224974       -2.7560726913        0.7989172306
 H         -4.6891778534       -2.9136650309        1.7273401539
 H         -4.3851648655       -2.0221057569        0.4963815186
 O         -3.7126605528        3.1014497328        1.0650897723
 H         -4.0429528706        3.1165175389        1.9659044089
 H         -3.3062178600        3.9987243687        0.8897302418
 O         -1.6331398618       -4.7551031137        3.0181787714
 H         -1.1708396544       -4.9634228946        2.1864717433
 H         -1.5670308007       -5.5260153186        3.5820738508
 O         -4.6143766849        1.5653957875        3.4441746900
 H         -5.0792534192        1.2455534714        2.6438887570
 H         -5.2917385746        1.8225977016        4.0707558974
 O         -0.4307437896        3.7631296348        1.5279877814
 H          0.4543891398        3.7360437907        1.9558467081
 H         -1.0439277512        3.5439029098        2.2550461245
 O          6.6483583320       -0.2917354692        1.2810432710
 H          6.5288491129       -0.9719848487        1.9702623857
 H          6.1497955418        0.4951924618        1.5705001064
 O          7.2341063947       -1.1640839949       -1.2196450717
 H          7.1225183247       -0.8460783643       -0.2995633592
 H          8.1642016753       -1.0750938506       -1.4283100627
 O          4.3273360312       -1.1246051444        0.0847536790
 H          4.6219388796       -1.9875936558       -0.2513590896
 H          5.1231021807       -0.7080415288        0.4549721472
 O         -6.4869863273       -1.3093344143       -2.3185138959
 H         -7.2725974355       -1.3691507011       -2.8623316605
 H         -6.7770768528       -1.3684302429       -1.3842669950
 O         -1.0702135680        2.7604453541       -5.2997076819
 H         -2.0173323088        2.7886754659       -5.0613980051
 H         -0.6716038531        3.5434206198       -4.8771506283
 O          0.1555056951        4.5139288996       -3.5720733835
 H          0.2589814766        4.1441324111       -2.6755781013
 H          1.0476002154        4.7833523565       -3.8225225541
 O          2.3575165027       -4.2276612003        3.6228211407
 H          2.6562304391       -4.7471365341        2.8744650333
 H          1.5790901280       -3.7277151550        3.3286359891
 O         -4.4467984715        0.4963474899       -2.2333376324
 H         -5.2191802258       -0.0703778899       -2.3838034006
 H         -4.7949344576        1.3158291753       -1.7947808294
 O          0.0245406462        1.2387385396       -3.4588026359
 H          0.9204196226        1.6027402467       -3.3282077513
 H         -0.3538869150        1.7409209846       -4.2205707074
 O         -4.1384622135       -2.7833801993       -3.0182964045
 H         -3.4229090440       -2.1288112315       -3.1245453366
 H         -4.9528230461       -2.2911172790       -2.8483628377
 O         -1.6690987945        1.4960503236        0.6304106685
 H         -0.9845958395        2.1139690587        0.9467499728
 H         -2.5152681867        1.9468567315        0.8585498241
 O          2.3464974414       -3.6885232725        0.6325307260
 H          2.5916470395       -3.4414735581       -0.2750750011
 H          2.2730406518       -2.8479381433        1.1437788289
 O          3.1238038665        4.4701989798       -0.9382607876
 H          2.1664646899        4.2480579751       -0.9028514847
 H          3.2720609345        4.7302548805       -1.8596828912
 O          2.9832593431       -3.0453768080       -2.0478973194
 H          3.1187492778       -2.2255024736       -2.5506060912
 H          2.1220213707       -3.3835592575       -2.3496031790
 O          6.0751948414       -2.3931997696        2.9422007542
 H          6.8022976738       -2.8358257574        3.3804192368
 H          5.6319531682       -3.0851583804        2.3764756816
 O          0.6275167726       -1.2462119951       -4.3809320238
 H          1.5851641020       -1.2261465760       -4.2816930515
 H          0.3102876887       -0.3982362986       -4.0079279890
 O          1.8713027926        3.3015205832        2.7072842741
 H          1.7766419402        2.3376579323        2.5493989714
 H          2.7253036683        3.5839900031        2.3451569373
 O          3.8964346833        1.8606905401       -0.8242666859
 H          4.1059908079        1.5886048867        0.0885686597
 H          3.7724579328        2.8276383874       -0.7966271558
 O         -3.6466886639       -0.5140665720        0.1317718636
 H         -4.2731112672        0.0020089939        0.6673506314
 H         -3.8271377344       -0.2261458042       -0.7849030771
 O          0.5860285198        3.6089093246       -1.0199124900
 H          0.1184260058        3.8330164809       -0.2017939699
 H          0.7713795056        2.6515450311       -0.9523181869
 O          4.8993472087       -4.2107150300        1.4652904559
 H          3.9530969398       -4.0983509476        1.2493897357
 H          5.3460866719       -4.1542362094        0.6082949916
 O          3.4779050683       -0.9010262935       -3.7883554814
 H          4.2241137206       -0.4698282414       -3.2718927077
 H          3.8908596797       -1.2658699260       -4.5723689665
 O         -3.7231393539       -4.3942883792       -0.9894757056
 H         -4.4242029981       -4.1519419545       -0.3635108286
 H         -3.9028718837       -3.8606435608       -1.8033677621
 O          3.7425272075       -2.0412952873        4.3020645052
 H          3.3476860169       -2.9368813662        4.2324614692
 H          4.6537937157       -2.1258732869        3.9700832600
 O          0.1218009901       -2.6667083375        3.1213563428
 H         -0.5545840429       -3.3523030988        3.2426335606
 H         -0.3494160877       -1.8996413625        2.7555278414
