  87
       -142.30867721
 H         -0.5367963614       -1.7389560494       -0.5468445436
 C         -1.0022964288       -0.7820548307       -0.3100727991
 H         -2.0264239826       -0.7766314071       -0.6894069034
 C         -0.2249282079        0.3619119808       -0.9406769153
 H         -0.7264056697        1.2984989651       -0.7085287745
 H         -0.1895184452        0.2351451133       -2.0166030264
 O         -0.9855109423       -0.6589653219        1.0921504392
 H         -1.3844412759        0.2079082995        1.3115693252
 N          1.1428784929        0.3948206010       -0.3834081008
 H          1.2697448866       -0.3876954146        0.3141247756
 H          1.3107287888        1.2927042193        0.1285453688
 H          1.8746271898        0.2937098236       -1.1093846690
 O          1.5859378037        1.6308747400       -2.9192633734
 H          0.8879638974        2.2874843575       -2.7656553187
 H          2.4334877611        2.0676193328       -2.7756859423
 O          3.8509299030        3.5375087710        0.5367001325
 H          3.9367580361        4.4822688639        0.6728879312
 H          2.9016079933        3.3074362768        0.6885222790
 O          3.6311733812       -0.1976384682       -1.3742832959
 H          3.9568150767        0.6784777694       -1.6431506441
 H          3.9790440719       -0.3831553028       -0.4831039282
 O         -4.2521478516        1.0137028735       -0.2397934986
 H         -4.3777633521        0.0503912083       -0.0699186144
 H         -5.1243477451        1.4101751779       -0.2557370531
 O         -1.2111654103       -3.0440491050        2.4100794890
 H         -1.3211630347       -3.7104682199        1.7166425746
 H         -0.9903631290       -2.2285524196        1.9270548352
 O         -0.7358671955        3.8504095780        0.3010225227
 H         -0.7714782226        3.7230680146       -0.6649771819
 H         -1.3952092785        3.2506261435        0.6913900946
 O          1.1698382679       -3.5005421547       -0.4063322092
 H          1.4152494330       -2.9137920703        0.3260569950
 H          1.5617310839       -3.1223520097       -1.2097072691
 O          4.1565755542        2.4338041361       -1.9209892841
 H          4.9417009933        2.7714701484       -2.3537107603
 H          4.1069732206        2.8611501318       -1.0406251587
 O         -4.5387375225       -1.5925837620        0.2402148122
 H         -4.0169398705       -2.1240304363       -0.4267203511
 H         -5.4134979327       -1.9844137589        0.2558952248
 O          2.3707149193       -2.2441760802       -2.5750967643
 H          2.9118927244       -1.5231136561       -2.1941306887
 H          2.9607562955       -2.7905881825       -3.0960916496
 O         -3.1743345804       -2.9437192037       -1.5211681611
 H         -2.5019854509       -3.4726397663       -1.0532161830
 H         -2.7151078545       -2.3982130431       -2.1783461980
 O         -2.0591338778       -1.1231238885       -3.3882093532
 H         -1.1062551320       -1.0249192981       -3.6244073347
 H         -2.5097954800       -1.3202556047       -4.2118384566
 O         -2.7057243497        1.4495403029       -2.5512312806
 H         -3.2672504650        1.3456129875       -1.7678432140
 H         -2.5223412851        0.5512549323       -2.8777212450
 O          4.3219313726       -0.6983256223        1.2312547454
 H          5.1031706047       -1.1868329176        1.4925275511
 H          4.3475980538        0.1635463982        1.7296628473
 O         -3.5098009541       -1.7011325426        2.8390125381
 H         -2.7757402645       -2.3495708319        2.7952085808
 H         -3.8687186736       -1.6482337894        1.9382817805
 O         -2.2322176753        0.3816030235        3.7015629213
 H         -2.5444473588        0.5374958962        4.5935933926
 H         -2.7641309306       -0.4009981524        3.3631944542
 O          1.7361380881       -1.4921217581        1.4295118820
 H          2.6857205676       -1.3122072297        1.5482361123
 H          1.2584017080       -1.2701274024        2.2489590119
 O         -2.1935650071        1.7839615980        1.3686641680
 H         -2.3692263681        1.5691195477        2.2988792431
 H         -3.0030787990        1.5858015751        0.8626111854
 O         -1.3132771091       -4.3652989874       -0.0696735815
 H         -1.3462695925       -5.3164247567       -0.1789804455
 H         -0.3801097217       -4.0972996223       -0.2422598691
 O          4.2299737073        1.5710230753        2.5070424268
 H          4.2695546420        2.3039748228        1.8734015214
 H          3.3600631475        1.6123616640        2.9352886839
 O          0.2354473588       -0.8091455862        3.6757852258
 H          0.0173200985       -1.7327612031        3.8405729610
 H         -0.6341649023       -0.3575535764        3.6147979905
 O          1.6152070471        1.5526998602        3.5454049948
 H          1.2023857453        0.6734524302        3.6201707932
 H          1.4943323212        1.9806903824        4.3945005052
 O          1.4225308324        2.6589683149        1.0411847359
 H          0.6164727103        3.2082830842        0.8112287058
 H          1.3396028665        2.3829995277        1.9689637557
 O          0.5164240281       -0.7307939896       -3.9592432949
 H          0.9314674218        0.1377696862       -3.8425119071
 H          1.1223876066       -1.3691095038       -3.5473536234
 O         -0.7082875276        3.1947134185       -2.3865176842
 H         -0.8881023868        3.9023332008       -3.0074111126
 H         -1.4517131270        2.5505392483       -2.4902015440
