  99
       -167.94337306
 O          6.7633050366        1.8068753755       -0.3166323561
 H          6.9101607561        0.9906681619        0.2238207648
 H          7.6109422693        2.0486024391       -0.6912701617
 O          0.6935072839       -1.4728696164        3.3993207149
 H          0.7493235404       -2.2826971263        2.8741209063
 H         -0.2518054681       -1.2906035884        3.5354774774
 O         -1.4236726188       -3.7016461402        0.2789021704
 H         -2.0973224552       -3.1853826115        0.7588341722
 H         -0.6105093962       -3.6915027826        0.8108529077
 O          0.3674566849        1.5539562800       -2.7657059897
 H          0.3911730343        0.6814669654       -3.2344164228
 H         -0.5472801735        1.8772227871       -2.7743186911
 O          2.6987903605        2.8416015722       -2.7257946533
 H          2.9840634817        3.1303630523       -3.5933533400
 H          1.8321731849        2.3955258810       -2.8455268068
 O         -1.1470251062       -2.1396260795       -1.8891287921
 H         -1.1537612191       -2.7990027171       -1.1633587248
 H         -1.8938628212       -2.3950701612       -2.4586482064
 O         -2.1074108812        2.2553883578       -1.9248846080
 H         -1.9009669647        1.5139024917       -1.3237119388
 H         -3.0738726029        2.2039423945       -2.0456243773
 O          3.2531701348       -2.8094170866        0.2108419586
 H          3.9750239526       -3.4370548098        0.2735387613
 H          3.5907632809       -1.9601594225        0.6025579904
 O         -3.9689783643       -1.1455714942       -1.3029593658
 H         -3.7072178027       -1.5179640639       -0.4515164767
 H         -3.9298596215       -1.8600592925       -1.9508252338
 O          0.6630869595       -0.9157905801       -3.5731344665
 H          0.0377176628       -1.4458665870       -3.0514479847
 H          1.5467371777       -1.1489276292       -3.2583691325
 O          6.8297121395       -0.3061869674        1.2835036526
 H          5.8629734423       -0.4704183598        1.2765527135
 H          7.0677638280       -0.1298731446        2.1951570227
 O         -2.0176183841       -0.9846163880        3.5768726961
 H         -2.1087058981        0.0125732392        3.4879795410
 H         -2.3498211508       -1.1953528778        4.4507283403
 O          1.0183845466       -3.6091968521        1.5844173183
 H          1.2602695434       -4.4410523403        1.9955504802
 H          1.7843021559       -3.3305842585        1.0406022699
 O          4.9708870024        2.6598287101        1.6037725385
 H          5.6208294406        2.4873984945        0.9023850683
 H          5.2394700536        3.4629649914        2.0499189773
 O         -4.6812815543        1.4588084605       -1.5391530086
 H         -4.4104278419        0.5283627684       -1.6549033878
 H         -4.4803477152        1.6422739339       -0.6013239534
 O         -0.2833060118        2.7908402880        1.8917136749
 H          0.6811141306        2.8096837053        1.8391229000
 H         -0.5939061986        3.3513972033        1.1624144637
 O          2.6673224908        0.3260300160        3.0225349844
 H          1.9742391599       -0.3044830402        3.2969297503
 H          2.2517237189        1.1875193946        2.9426684789
 O         -0.9519450699        4.1627262525       -0.4456708332
 H         -1.5110227751        4.9391482712       -0.4038026817
 H         -1.4052473566        3.5162689961       -1.0341224319
 O          4.2712934419        1.1002282121       -1.2416071168
 H          5.1722107226        1.4257112295       -1.0859775156
 H          3.8005168689        1.8022291720       -1.7225662758
 O          4.1469807398       -0.4817433632        1.0166153583
 H          3.6642219567       -0.1168134642        1.7996592443
 H          4.1281191273        0.1975406667        0.3190412209
 O         -3.7447725203        1.1257949596        0.9823746574
 H         -3.0239409659        0.6356270104        0.5548993224
 H         -4.4197560987        0.4639953124        1.2259959956
 O         -3.2840473370       -2.0443862342        1.3961984359
 H         -2.8574752099       -1.6878699526        2.2004030116
 H         -4.2252430168       -1.8357712508        1.4944259722
 O         -2.3446151869        1.5673321659        3.2681013001
 H         -1.5659556804        2.0712220550        2.9850628424
 H         -2.9552888803        1.5951149282        2.5066088747
 O         -2.8476670547       -5.3062624602       -1.4378559357
 H         -2.2790264024       -4.8809628332       -0.7726283260
 H         -3.4643222803       -5.8664744924       -0.9650674129
 O         -5.7095156037       -0.7270877992        1.4695139502
 H         -6.1956830858       -0.4917709180        0.6433501097
 H         -6.3138469555       -0.5391338987        2.1889303128
 O         -3.3690756148       -3.2318359001       -3.0469189984
 H         -3.5120974394       -3.4914065029       -3.9574340878
 H         -3.2553075050       -4.0587698578       -2.5284032639
 O         -6.9605984832        0.1749383536       -0.7035413337
 H         -7.3122004669       -0.3656580363       -1.4118280179
 H         -6.3113742677        0.7826659678       -1.1100609262
 O          2.3439007143        2.4585895524        1.0547715965
 H          3.2905086621        2.4740364693        1.2960881549
 H          2.2064383669        3.2585130730        0.4813130317
 O          3.0235499312       -1.2112016283       -2.0426964514
 H          3.1429879693       -1.9309842976       -1.4004858708
 H          3.8439373191       -0.7024843232       -2.0679802381
 O          1.8136638344        4.4019434341       -0.6012262389
 H          0.8427635238        4.4173084304       -0.6389614256
 H          2.1301748314        4.0358928451       -1.4410222637
 O         -1.4926893222        0.2452436226       -0.3679135856
 H         -1.4891003233       -0.5583958170       -0.9134949311
 H         -0.5532180439        0.3474321085       -0.0942967250
 O          1.1416357974        0.0011715768        0.1462019286
 H          1.6341528606        0.8221447819        0.2938078181
 H          1.5579574996       -0.4449960071       -0.5973404442
 O          5.2881612477        0.2668715107        3.9064275290
 H          5.2952029633        0.7923781841        3.0998673514
 H          4.3464272499        0.1550597654        4.0933269751
