  387
       -651.64771841
 H         -1.3729368073        1.3144936756       -0.5455854653
 C         -2.1125851707        0.8398179144        0.0957968147
 H         -2.6540134412        1.5998835352        0.6529599867
 C         -1.4308492180       -0.0987153086        1.0753755058
 H         -2.1962598472       -0.6184593424        1.6422288191
 H         -0.7893360260        0.4704418225        1.7401674000
 O         -3.0024408282        0.1358954474       -0.7488881981
 H         -3.5895981450       -0.3789640168       -0.1781963825
 N         -0.6119630840       -1.0734922405        0.3402614820
 H         -1.0163226313       -1.2406448640       -0.6122956771
 H         -0.5260540074       -1.9814956272        0.8282857631
 H          0.3464637347       -0.6904208669        0.2241688703
 O          8.1387110067       -2.8344928331        3.4686585475
 H          8.5757827891       -2.6006820326        2.6384402208
 H          7.5778471145       -2.0629837790        3.6774965459
 O          4.4816647263        2.2780079003       -0.6963275422
 H          3.6143384972        2.5174339171       -0.2999197577
 H          4.8372320561        3.1246566354       -1.0367371482
 O          7.4863494131       -4.3549291811        0.3895680364
 H          7.1067279471       -4.6518647242        1.2198120216
 H          7.9303767432       -3.5095231969        0.5733944472
 O          4.2648850193       -0.4571135505       -0.5101535654
 H          4.5784250913        0.4583471863       -0.4431566909
 H          4.6568954415       -0.9476394754        0.2302267635
 O         -2.1956885953       -2.6985458283        2.5347731009
 H         -2.2266920289       -3.4854700926        3.1062216346
 H         -2.6689314182       -2.0107622110        3.0599383691
 O         -1.4351684772       -1.6908216974       -2.1772061768
 H         -0.6372412483       -1.6174692627       -2.7140178782
 H         -1.4124325186       -2.6130765603       -1.8279107339
 O         -2.2993577916        1.0994517780       -3.2300700607
 H         -2.3356061631        2.0425520225       -2.8971780623
 H         -2.5166047911        0.5563914837       -2.4539325025
 O          0.2437934983       -3.5352194630        1.2939718795
 H          1.1985002339       -3.4818029836        1.1024204061
 H          0.1483647607       -4.1091547808        2.0741344996
 O         -3.0530402936       -0.8830436183        4.1878676684
 H         -2.6483084860       -1.2930066097        4.9670045625
 H         -4.0177377370       -0.9072399026        4.3238766411
 O         -2.3958181272        5.9829021475        2.3504664318
 H         -3.2935827977        6.2876370173        2.5353953684
 H         -2.4990707445        5.3333992123        1.6136636439
 O          6.0183349800       -4.3051733065        2.9352162935
 H          6.8990742535       -3.8990997443        3.1356608975
 H          5.5410577733       -4.1929430045        3.7727791910
 O          1.2462112440       -2.1480406093       -1.3983034267
 H          1.7381347102       -2.1094032202       -0.5764669651
 H          1.6778329053       -1.4942134576       -1.9817071554
 O          1.4605574718       -4.8940959418       -1.5412416202
 H          1.3378273383       -3.9260732828       -1.4663906622
 H          1.1186024494       -5.1202365644       -2.4225050607
 O          2.6315593789       -0.2275369486       -2.6702475327
 H          3.0013678898       -0.4775476693       -3.5390023402
 H          3.3460418649       -0.2866850028       -2.0217207235
 O         -4.9812182163       -2.8419449405       -5.0010043604
 H         -5.3749719438       -3.5693278265       -4.5056592246
 H         -5.7021353483       -2.2422876049       -5.2360902819
 O         -3.4587694343       -4.1282535762       -2.4726170774
 H         -3.3525092565       -3.9507956192       -1.5204488851
 H         -4.4121283080       -4.2150764422       -2.6340422235
 O         -1.7615926797        2.0463044783        3.1583843684
 H         -2.6445190583        1.6587630177        2.9738263612
 H         -1.3158159208        1.4415392461        3.7676472522
 O          2.4683131044        2.5081515179       -2.9400022751
 H          1.6545792933        2.7424464804       -3.4067290968
 H          2.4960845458        1.5347161172       -2.8884644778
 O         -0.5643475884        0.5840653537        5.1201886680
 H          0.1105952437        0.2411778828        5.7563632413
 H         -1.4049436924        0.5338998209        5.6240971043
 O          0.1689169276       -5.2539878482        3.3974443802
 H          0.9339639035       -4.9310619807        3.8952636333
 H          0.5140266657       -6.0842878311        2.9766980986
 O         -2.0507496621        4.3256619643        4.4684666124
 H         -2.0571662645        5.0294772469        3.7901585010
 H         -1.9741717677        3.4881666819        3.9559364298
 O          0.0720476688       -1.4263888034        3.3357583772
 H         -0.2694059038       -0.6628673046        3.8338772556
 H         -0.6998435754       -1.9320314976        3.0022708132
 O         -5.7764523719       -1.0553251827        4.3511047963
 H         -6.2294671369       -0.5665772563        3.6380437407
 H         -5.7103813699       -1.9670346286        4.0207967078
 O          4.0326535061       -1.1098817178        4.9560928913
 H          3.5166103349       -1.2941879435        4.1303543430
 H          3.6782541988       -0.2783781016        5.2889617569
 O          1.8023048327        0.1258990659        0.4510402854
 H          2.7302025009       -0.0325299480        0.2061385961
 H          1.7838779615        0.5890481102        1.3145713070
 O         -5.0034683529        3.8182433268       -3.2128636456
 H         -4.5232320088        3.7850859780       -4.0558111419
 H         -4.9985259419        2.9133906229       -2.8613039842
 O         -1.3504630794        6.5527680013       -1.6538751535
 H         -0.8587819858        5.7408476482       -1.4238021595
 H         -1.2264391204        7.1598737786       -0.9250822302
 O          8.6085769399       -1.8219637954        0.9447230362
 H          9.0718249027       -1.6614660309        0.1112430849
 H          7.9034744529       -1.1429466304        0.9778430512
 O          4.8715867605       -3.2096455739       -5.2047122517
 H          5.4988395992       -3.9143388505       -5.0074283540
 H          5.1595001999       -2.4604377418       -4.6441341937
 O          1.4378372213        1.3734303915        2.7780123205
 H          1.8436035642        1.1393408894        3.6220425526
 H          1.6293760231        2.3176893570        2.6534763927
 O         -3.4986664178       -3.8757719912        0.3634074951
 H         -3.0013132166       -4.6819641064        0.5802420826
 H         -3.1389819763       -3.2212937856        0.9845757621
 O         -2.6490054339        4.2875722405        0.3283868263
 H         -3.3250499744        3.5868010800        0.4296237327
 H         -2.9979835355        4.8292065365       -0.4086053566
 O         -7.5587562546       -1.8611450595       -3.0460148555
 H         -7.2189864900       -1.4048723361       -3.8411636891
 H         -8.2742449528       -1.2967987440       -2.6855871416
 O          6.3874085734       -0.7796929866        3.6815164252
 H          6.7953588425        0.0664786091        3.9129242628
 H          5.5718644591       -0.8571384294        4.2139002802
 O         -2.8706200462       -1.4728673394       -6.1589105116
 H         -3.2771793602       -0.6490876854       -5.8313295193
 H         -3.6112796558       -2.0629109551       -6.3287737942
 O          2.8646750366       -3.2805752259        0.8556344583
 H          3.2586027331       -3.2468133772       -0.0473894667
 H          3.2097068605       -4.1001662276        1.2609804907
 O          7.1720660233       -4.4862289735       -4.0770399840
 H          7.8277656785       -5.1617338963       -4.2489310350
 H          7.6375276666       -3.6242836638       -4.0877694521
 O          4.4920004151        4.6264851081        2.7962107272
 H          4.5751344972        5.2904133464        2.0940384038
 H          3.5358905380        4.4415294871        2.8817595923
 O          7.4734692843        1.1193047863       -1.6097262056
 H          6.7208326736        1.1721214187       -2.2300644710
 H          7.1117654383        0.7827550137       -0.7598683495
 O         -4.1936749137       -5.5623487678        3.1033110775
 H         -3.5928930821       -5.3574711145        3.8347236826
 H         -3.6245918401       -5.8704280926        2.3847051447
 O          1.7350371762        6.0426468353       -2.8749058531
 H          1.6467774859        6.8343556235       -3.4028339245
 H          2.5537796330        5.5786405812       -3.1835342202
 O         -1.9643218935       -5.8658505216        1.4386628148
 H         -1.4415765141       -5.6110687555        2.2051299569
 H         -1.3224367878       -6.2563271967        0.8151303043
 O         -1.1221295866       -3.9563236955       -0.9844598033
 H         -0.6380973591       -3.9599571959       -0.1428712308
 H         -1.1903783014       -4.8607167343       -1.3194179148
 O          3.7898404729       -5.5945427997        1.8272494639
 H          4.7084576447       -5.4573832304        2.0902587604
 H          3.8055888090       -5.9337263207        0.8834872346
 O         -7.0416253197        0.3308177905        2.3412783181
 H         -6.6914340150        1.2385411518        2.5200744101
 H         -8.0038258157        0.4031090100        2.4671350283
 O          2.6755621300       -4.5423874466        4.1733634341
 H          3.0058424219       -4.9605687826        3.3639479541
 H          3.4503273269       -4.4140693915        4.7370352365
 O          6.4727353719       -2.1079438467       -1.1356827019
 H          6.2333665393       -2.1312791282       -0.1946083360
 H          7.4157092190       -1.8928370461       -1.2009339124
 O          4.4289461818        0.7069642876        1.9731882880
 H          3.8160677775        0.0122663235        2.2616736346
 H          4.5600329636        1.3061437059        2.7256995372
 O          0.1094504052        4.2704251655       -1.4699753715
 H          0.6964468860        4.5761231896       -2.1713560199
 H          0.3596911918        3.3331562976       -1.2823162095
 O         -4.1189363460        0.7890444746       -5.1735942939
 H         -3.5813266024        0.8379386112       -4.3523840260
 H         -4.1981793511        1.6863830653       -5.5088321264
 O         -5.1467249030        6.0810483058        2.8783983122
 H         -5.0603331156        5.3541846797        3.5270371307
 H         -5.7571191956        6.7136527307        3.2569727759
 O         -2.2902428335        3.5369615733       -2.4435001827
 H         -1.4637284806        3.6992082286       -1.9489967298
 H         -2.2497719949        4.1526234920       -3.1951539785
 O         -4.1964118561        1.1688819144        2.5957995232
 H         -4.5803128477        1.7964577842        1.9595446001
 H         -4.3421007337        0.2826344528        2.2109477293
 O          1.8148690275        1.3936378575       -5.9149936987
 H          1.3046588150        1.2511555723       -5.0897493914
 H          1.2862531773        0.9880820844       -6.6079798458
 O          0.4680617147       -1.8338963400       -4.3525760463
 H         -0.2818378808       -2.4586581623       -4.4075482420
 H          1.2835341476       -2.3717604173       -4.2312616666
 O         -8.9668466220        3.3308286026        2.0785931164
 H         -8.8432398220        3.4927447756        1.1283620917
 H         -9.3681349989        2.4545480300        2.1462481117
 O         -2.7162523693        0.5643370852        6.6997002967
 H         -3.4756575594        0.8564014785        6.1428724883
 H         -2.6499566368        1.1901597732        7.4205009066
 O          6.1602494451        2.9327590684        1.3834473219
 H          5.4901323559        2.5456634399        0.7886662709
 H          5.6834669802        3.5965065687        1.9035515034
 O          9.0799008772        1.2488834805        2.0820230084
 H          9.5332681933        1.9698457869        1.5830871954
 H          9.6361258168        0.4693143048        2.0284810191
 O          4.9291853971       -3.6241012228        5.4047089964
 H          4.6302236034       -2.6956153388        5.3526886808
 H          5.5458852663       -3.6857527349        6.1337341510
 O          1.0273305743       -2.6825117410        5.4326973463
 H          0.7315239925       -2.2597605158        4.5888150311
 H          1.6621717321       -3.3580971195        5.1694911807
 O         -2.1516520459       -4.4913043175        4.5819599606
 H         -2.0551340836       -3.8354685892        5.2855650829
 H         -1.2726520189       -4.8639530183        4.4041025239
 O          1.3588611915       -7.1989759712        2.1215597157
 H          0.9460882537       -7.2387557592        1.2434408926
 H          2.2616824266       -6.8878584786        1.9885425012
 O         -6.5210030249       -0.5113426336       -5.1576535948
 H         -5.6369920441       -0.0970318763       -5.1530394608
 H         -7.1261187881        0.2265017552       -4.9664957051
 O          0.0142357231       -6.7158739504       -0.2119841193
 H         -0.5033124548       -7.0677094334       -0.9448466669
 H          0.5898524114       -6.0239309647       -0.6090173400
 O         -3.9505552334       -1.2048944934       -3.0498327318
 H         -4.2093162469       -1.8210015596       -3.7598090894
 H         -3.0460595459       -1.4399486554       -2.7662761348
 O          3.4720937034       -0.6515669651       -5.1382764651
 H          3.0084527447        0.0503175722       -5.6216121170
 H          3.6907182521       -1.3610849405       -5.7423296399
 O         -5.3181639276        1.2344553468       -2.2660530127
 H         -4.7823771254        0.4681253368       -2.5195888991
 H         -5.8725838550        0.9511765474       -1.5079399788
 O          2.7369169440        1.4019532179        5.3079952808
 H          3.5522248006        1.8131312675        4.9572406562
 H          2.1490132816        2.1314630832        5.5366696828
 O          4.9547797159        2.3067305151        4.1412137074
 H          5.9088787920        2.1584333399        4.2399221794
 H          4.8517979330        3.2005497743        3.7770584986
 O         -6.3952497839        2.8732916611        2.6089870367
 H         -7.3110615059        3.2096009253        2.5059727769
 H         -5.9725866075        3.3526861635        3.3297530810
 O         -1.7183644942       -3.3844320349       -4.4802560153
 H         -2.3440324882       -3.6107034917       -3.7659260745
 H         -2.1946618530       -2.7965758827       -5.0895542310
 O         -1.3118842954        1.9579207828       -5.7029264879
 H         -1.7148047887        1.6019186766       -4.8974304310
 H         -0.9423564656        1.1729730490       -6.1595418842
 O         -9.0424914234       -0.0847523586       -1.7425489130
 H         -8.3281519592        0.2872509416       -1.1737594186
 H         -9.6547573633       -0.4971046616       -1.1196590617
 O          0.3921971572       -5.1615741143       -4.0749296466
 H         -0.3396145151       -4.5909012088       -4.3547557091
 H          1.2085962002       -4.6754210244       -4.2807705535
 O         -9.7614170079        0.5982816429        2.3166363464
 H         -9.9658435511       -0.0298867567        1.5920496695
 H        -10.3822419962        0.4226066108        3.0238114508
 O          0.3758649062        3.1909338933        5.3292279072
 H         -0.4090845791        3.7565723182        5.2527937019
 H          0.0447060709        2.2818894206        5.1999829810
 O          0.4742557112        3.6545941822       -4.6020722250
 H         -0.1485020465        3.0023350340       -4.9956855682
 H          1.1324152826        3.8288805463       -5.2761604067
 O          6.8515428760        0.2752164138        0.8578013789
 H          5.9926278907        0.4666699576        1.2920645711
 H          7.5036909817        0.8316609610        1.3143014170
 O         -5.8343150799        5.0136860409        0.4374455582
 H         -5.6232389911        5.4248192689        1.2925723735
 H         -5.2893230190        5.4484652637       -0.2362670881
 O         -7.6992387827        1.4337537855       -3.7064833646
 H         -8.3658308462        1.0309731865       -3.1346110269
 H         -6.8585339728        1.4090082338       -3.2091304294
 O          5.5525499627        4.6422539046       -1.4415484531
 H          6.4886855240        4.4043227720       -1.2831887222
 H          5.3075331327        5.2508821887       -0.7229372577
 O          0.2851694886        5.7464952428        1.6887597372
 H         -0.5412757642        6.1283024551        2.0079859939
 H          0.0536108839        4.8196488212        1.4269895107
 O         -4.7844610414        1.3878119151        5.1993771923
 H         -5.4106517070        0.6671797313        5.3285312126
 H         -4.5261711301        1.3135840696        4.2499749454
 O          1.2057373845       -0.3885779003        6.8132037560
 H          1.3352401743       -1.2797686764        6.4362873433
 H          1.9626715985        0.1475573203        6.5522050957
 O          5.4373412690       -2.0942170917        1.4315705464
 H          5.7858017718       -1.4879165130        2.1053141777
 H          5.5012665366       -2.9761080239        1.8369078107
 O          2.7307107719       -1.3502905082        2.7082282384
 H          2.8956000142       -2.0513843656        2.0473328631
 H          1.7665265230       -1.2936650728        2.8210156387
 O          5.8141761661       -4.8421670055       -1.6982000534
 H          6.4584128362       -4.6301548298       -0.9925772274
 H          6.2893456952       -4.7507958428       -2.5404833173
 O          8.2313121097       -1.9728343314       -4.2483332954
 H          7.3189480578       -1.6268075292       -4.0461923974
 H          8.4563202548       -1.6560003445       -5.1228088525
 O         -3.4079221529        3.7151015427       -5.4735171247
 H         -2.6749427814        3.1520277762       -5.7712084569
 H         -2.9982876325        4.5719307475       -5.3028642201
 O         -6.2036654198       -4.2487100904       -2.8064815919
 H         -6.8129098233       -3.5053120647       -2.9482217438
 H         -6.3250846924       -4.4822944458       -1.8723365750
 O          0.3180255129        0.7456373190       -3.7184614041
 H         -0.6418812620        0.8026594783       -3.5390534681
 H          0.5193462247       -0.1969569740       -3.8375050034
 O          3.6887794371       -6.2255622182       -0.6694854898
 H          4.4773456234       -5.8889581756       -1.1245570263
 H          2.9264828640       -5.7506380162       -1.0504455878
 O          3.8709598803       -3.0665863744       -1.5904945854
 H          4.6156146031       -3.7098302965       -1.6608981581
 H          4.2844399515       -2.2021698731       -1.4829397888
 O          0.4459562852        1.6927504855       -1.2056084827
 H          0.5796306250        1.3164189525       -2.0898544828
 H          1.0626303068        1.2337878130       -0.6076446305
 O          2.2051912116        6.0015097537       -0.1715727070
 H          1.8992359862        6.0589303926       -1.0935935827
 H          1.4369236111        6.0634419649        0.4255788660
 O          5.2392900887        1.2453299820       -3.1290906554
 H          4.9922716808        1.6883168905       -3.9708567177
 H          4.6904276698        1.6313561998       -2.4261289508
 O          3.8562003729        4.6307571675       -3.5700815188
 H          4.5682055561        4.7630974719       -2.9225695813
 H          3.3995142544        3.8095409091       -3.2697889309
 O          2.3608653938        3.2882803314        0.4682554321
 H          2.3779992622        4.2217441691        0.2108303426
 H          1.4293684182        3.0736134724        0.6168946838
 O         -4.6911412567        2.5956610860        0.3282653845
 H         -5.2969490234        3.3577715083        0.4292545462
 H         -4.7872125797        2.2534833046       -0.5681051305
 O         -6.1464627726       -3.8217211494       -0.0751340851
 H         -5.2695206312       -4.0725214811        0.2709245006
 H         -5.9616210141       -2.9697793248       -0.5353983820
 O         -7.9078134429        3.5032035838       -0.4356729289
 H         -7.2452052566        4.1230059045       -0.0858710271
 H         -7.9985347473        3.7525462218       -1.3871002362
 O          1.8749251987        4.0767505388        3.2493827188
 H          1.3793069897        4.7749472662        2.7937533917
 H          1.3797711364        3.8663614744        4.0635884068
 O         -7.8228173261       -2.3636204575        1.4391782362
 H         -7.3104228001       -1.5625973580        1.6063963577
 H         -7.2873522864       -2.9424175702        0.8525384280
 O         -1.6119900157       -2.2477098430        6.1627384555
 H         -1.7413769065       -1.6262088689        6.8826109458
 H         -0.6541899717       -2.3958387875        6.0803647750
 O          7.8416987742        3.5586137305       -0.5584548911
 H          7.8024897115        2.7100889854       -1.0526510042
 H          7.3063994358        3.3896927262        0.2561749568
 O         -4.0161052767        5.6957421214       -1.5069100907
 H         -3.2600925267        6.1700580404       -1.8756932291
 H         -4.3144131788        5.0432833543       -2.1742317078
 O          4.6980747310        6.2856599904        0.5902685746
 H          3.7520192817        6.2350092199        0.3175649353
 H          4.9301317144        7.2123866714        0.6377080746
 O         10.1898298145        3.1270374018        0.5978738752
 H          9.3718596114        3.4392993190        0.1405979586
 H         10.8365056827        2.9541154853       -0.0866640655
 O         -0.3296685015       -0.3984420927       -6.5677435135
 H         -1.1736269335       -0.8369716385       -6.7407951974
 H          0.0622905885       -0.9065947853       -5.8314576491
 O        -10.0741473195       -1.3773236474        0.4949657150
 H         -9.2384299467       -1.8177300375        0.8033064344
 H        -10.7626562903       -2.0406127720        0.5377010272
 O         -1.6285628250       -6.2668028625       -2.4052644410
 H         -1.0078534572       -6.1401824089       -3.1330864262
 H         -2.4121560676       -5.7309010384       -2.6072494274
 O         -5.4325920247       -3.2583114207        2.8160349879
 H         -6.3327895368       -3.4946399495        2.5745366511
 H         -4.9471396868       -4.1143768149        2.9091768940
 O         -4.7410655091        4.0876742955        4.6601501905
 H         -4.8817599415        3.2131149906        5.0539319150
 H         -3.7679156719        4.2194838128        4.6996783263
 O         -7.0937992589        0.9969373571       -0.3053611456
 H         -7.3972040848        1.9388076094       -0.2969395947
 H         -6.9882594921        0.7248431877        0.6236986991
 O         -0.3388980515        3.2389731960        1.1624455094
 H         -0.6966502821        2.7674937863        1.9317690924
 H         -1.1104343818        3.5037192136        0.6331563304
 O          4.4136785085        2.5250268540       -5.3261717546
 H          4.2987181453        3.4155271437       -4.9616283202
 H          3.5359125329        2.2029570063       -5.5691480140
 O         -4.6095330054       -1.1509194210        1.2790343035
 H         -4.8064479073       -1.9363542691        1.8225272773
 H         -5.2016593640       -1.1892326348        0.5129454272
 O         -5.7454017586       -1.4595032703       -1.1646411685
 H         -4.9637509467       -1.4363663828       -1.7637903402
 H         -6.5063798599       -1.5294262939       -1.7807983738
 O          2.5290475215       -3.4461486104       -3.9636444222
 H          2.8754009476       -3.3379567016       -3.0567363802
 H          3.3235461008       -3.4168260909       -4.5362285973
 O          5.8064586356       -1.3122690871       -3.5404668137
 H          5.9456303473       -1.6097293849       -2.6164938821
 H          5.5243466837       -0.3770260632       -3.4993198706
 O         -7.7539200892        4.0927592319       -3.0091450064
 H         -7.9438485466        3.2558044107       -3.4631618530
 H         -6.7983418396        4.2273545226       -3.1212091012
 O         -1.5657106220        5.4545858682       -4.2423970663
 H         -0.7319762782        4.9615458478       -4.3613017978
 H         -1.4093256908        6.0863347061       -3.5300860188
 O          8.9912967627       -1.1250390097       -1.6959432436
 H          8.5888483560       -0.2349087864       -1.7569250107
 H          8.9896742650       -1.4783565530       -2.5965276732
 O          7.6109519488        1.6386015560        4.2890828766
 H          8.1323633523        1.6325897042        3.4587554174
 H          8.2014001921        1.9278675847        4.9842415464
