  181
       -305.70996034
 H          0.1460994583        0.8602450986        1.1025973594
 O          0.3862048473        0.5629882759        0.1735345292
 H         -0.4263061266       -0.0110957059       -0.2496916810
 H          1.2217563432       -0.0026899115        0.3295355935
 O          1.1221006034        2.9724532644       -1.6849433641
 H          1.4971160864        2.0814819561       -1.6908393216
 H          0.8870857131        3.1815230729       -0.7660288469
 O         -1.4620162542        2.1765918320       -1.5202894560
 H         -1.5531183030        1.8605953162       -0.6100681453
 H         -1.3115161575        3.1322093625       -1.4339966458
 O          2.4160728474       -3.1153344205       -3.2559329899
 H          2.2196067729       -3.9968614139       -2.8928645876
 H          1.8510666009       -3.0134146254       -4.0538429471
 O          0.2818988619       -2.8098709912        0.3485300998
 H          0.7923684429       -2.1665108876       -0.1818868055
 H         -0.2659749178       -3.2833118942       -0.3136235419
 O          2.2232578125       -4.5861635614        0.5499050330
 H          1.4639555684       -3.9491095064        0.5020185593
 H          3.0228446279       -4.0210093886        0.5044137130
 O         -3.6916384541       -2.2524681023       -2.7102001874
 H         -3.7126860104       -2.2548811603       -1.7292475156
 H         -3.8035385470       -1.3195076354       -2.9456331371
 O          0.5913249410       -2.8123181061       -5.1943416082
 H          0.2587716554       -3.6783231453       -5.4637386085
 H         -0.0953960020       -2.5081128357       -4.5608753783
 O          1.7398374786       -5.3990135192       -1.9270805961
 H          1.9851883896       -5.2086354207       -0.9860066080
 H          1.9749803410       -6.3096720264       -2.1000548805
 O          4.8601456669       -2.7426677852       -2.0448851941
 H          5.2080084145       -1.8514569572       -2.2049083919
 H          4.1026082306       -2.8663074310       -2.6379360324
 O         -0.6733095848       -4.1179794423       -1.7182933980
 H          0.0971750634       -4.6646234701       -1.9425482826
 H         -0.6865817340       -3.3518708845       -2.3390548306
 O          1.4316656962        5.2524411152        2.8151650561
 H          1.3206576086        6.1968033691        2.9182288190
 H          1.0528956330        4.8194846398        3.6010900133
 O         -1.1549057096        4.8312440454       -0.9813352887
 H         -0.2828114955        5.2303563161       -0.8082400742
 H         -1.6984584694        4.9540410576       -0.1897311994
 O         -3.5514179418        1.7747171190        4.5374795625
 H         -3.9942817305        1.9998707209        5.3553271962
 H         -4.2142586956        1.2312815830        4.0117993912
 O          0.8918723257        3.3670740644        1.0152532504
 H          1.0711045631        4.1880353598        1.5063750764
 H          0.5739865402        2.7350513923        1.6805425889
 O         -1.8056878264       -1.0579656597        1.9388912289
 H         -1.8994290159       -0.1142135812        1.7259201801
 H         -0.9018007457       -1.2145236463        2.2591590598
 O         -3.9525246224       -5.8547762450       -0.5162448997
 H         -4.6824453158       -6.4592631592       -0.6468581259
 H         -3.6362524705       -5.5963865418       -1.4048068263
 O          0.1493724674        3.9586572171        4.8830536045
 H         -0.0241310621        4.4657125252        5.6765770640
 H          0.4678627174        3.0653888165        5.2004791548
 O          4.0842315995       -2.6612868015        0.4499667573
 H          3.4073300720       -1.9532404014        0.4140670824
 H          4.4006429014       -2.7815422049       -0.4828295465
 O          4.0667163754        4.9781877984       -0.6884211838
 H          3.7481352573        4.8644689214       -1.6157127847
 H          4.8764712035        5.4856722362       -0.7256856316
 O         -1.5770911710       -2.3460710596        4.7724548368
 H         -2.5434331477       -2.3450012215        4.6822619562
 H         -1.2853326309       -2.8846812340        4.0088769187
 O          2.3974182744       -0.6695159060        1.0522433666
 H          1.8763389517       -1.0484853090        1.8006109006
 H          3.0996033738       -0.1001510817        1.4491163102
 O          3.1260490576        0.9146943852       -1.7713493467
 H          2.6882789349        0.0721766434       -1.5171710001
 H          3.2516847190        1.4542206548       -0.9590136188
 O         -1.0483227712       -3.8903563573        2.5424123742
 H         -0.7026656727       -3.3651536258        1.8000542560
 H         -0.3111240907       -4.4271673639        2.8509286652
 O          0.1232876440        0.3436851675       -2.7351886861
 H         -0.4439292529        1.0821033973       -2.4324418857
 H          0.3937344084        0.4722545501       -3.6574981326
 O         -1.4524037856       -0.7236246491       -0.8573851018
 H         -2.0788859858       -1.1930051156       -0.2667312772
 H         -1.9981853484       -0.2117356747       -1.4877032211
 O         -2.0248161382        1.5279507588        1.1373953847
 H         -2.8978214858        1.7949660596        0.7962802222
 H         -1.8175910125        2.1679257773        1.8405145851
 O         -1.2612981320        0.3156675193        4.5187959851
 H         -2.1352504178        0.7402606019        4.5711075394
 H         -1.3944460335       -0.6574621645        4.5795503482
 O         -1.0601782377       -5.0697749015       -4.9938763956
 H         -1.7668033365       -5.0464972712       -4.3224570780
 H         -1.2707361206       -5.8011446590       -5.5736557163
 O          0.7582282027       -1.5822646179        2.9046100731
 H          0.8250912873       -1.3471009589        3.8468164755
 H          0.9897315775       -2.5329496310        2.8924476041
 O          3.8085341400       -2.2269750425        3.2708719493
 H          4.6595235616       -2.1415229133        3.7008332898
 H          3.9942716186       -2.4145188423        2.3381290896
 O          4.3670886656        0.8252612139        2.0046694641
 H          4.1762600377        1.6024273295        1.4471489138
 H          5.1158518384        0.3475588254        1.5784376869
 O         -5.3127047827        0.2894754589        0.5397433147
 H         -4.9515704832        1.1690835883        0.3238799666
 H         -6.1791486790        0.2368500410        0.1356664456
 O          5.5792275582       -0.0638534926       -2.0991648897
 H          4.6888255644        0.3581228147       -2.0513234324
 H          6.0837840746        0.4029259237       -2.7642708066
 O         -1.8603204795        3.3570001350        3.1394431971
 H         -2.5083879650        2.8688670229        3.6822418781
 H         -1.1144165531        3.5795781386        3.7271071713
 O         -2.9023985321        4.8622619933        1.1937703915
 H         -3.3101868452        5.6425367535        1.5685330342
 H         -2.4846011578        4.3687098394        1.9338247833
 O         -2.9209542471       -4.9301150892       -2.8913154010
 H         -3.3745068078       -4.0806458758       -2.9932319252
 H         -2.1190573468       -4.7262914811       -2.3604292853
 O         -4.0938395475        2.8887606129       -2.6706486717
 H         -4.8948001738        3.1766661875       -3.1079480439
 H         -3.3736952892        3.5085701339       -2.9717171104
 O         -1.0696541859       -2.0463088272       -3.2989954718
 H         -0.7897895364       -1.1681686061       -2.9771072765
 H         -2.0410149173       -2.1036097951       -3.1784306104
 O         -2.9990643232        0.3547246038       -2.8767074396
 H         -2.4642789003        0.5225321939       -3.6722646809
 H         -3.3768202576        1.2202257855       -2.6543216642
 O          1.3375078958        5.9290568980       -0.7667127878
 H          2.1506094190        5.6164259857       -0.3498696488
 H          1.5543927399        6.0409536681       -1.6965293134
 O          3.3443444427        2.5828726302        0.3010214398
 H          3.7470126779        3.4180976012        0.0045934262
 H          2.4471307524        2.8367360464        0.6184330444
 O          2.6050492037        0.4406027981        3.9672049226
 H          3.3728715474        0.7212644591        3.4393914929
 H          2.7337900441       -0.5038959822        4.1229974050
 O          0.0031788044        3.1063634079       -4.1250487935
 H          0.1578476295        3.0939290084       -3.1600674288
 H          0.8810173243        2.9082273115       -4.4926352119
 O          2.5324672699        1.9971010598       -4.3370484746
 H          2.7779151745        1.6020193438       -3.4857052336
 H          2.2067784068        1.2654385615       -4.8788703985
 O          6.0388323377       -0.6672397026        0.6076334884
 H          6.0737788057       -0.4084499805       -0.3253674107
 H          5.5759519198       -1.5203184707        0.6191662880
 O         -3.6576761916       -1.9217700169       -0.0482629338
 H         -3.6791714638       -2.6911650499        0.5645003700
 H         -4.2641515100       -1.2479968539        0.2865653228
 O          1.6850210386       -4.1100934899        3.1668310389
 H          1.9680936178       -4.5031058294        2.3194031781
 H          2.4727964706       -3.7134922555        3.5587045741
 O          0.9469840403       -1.4518428410        5.5994834590
 H          0.9304196775       -0.7685859355        6.2730787695
 H          0.1234976596       -1.9525024471        5.6747467004
 O          2.8352345203        4.5539969982       -2.9931189524
 H          3.1122052945        4.0096695394       -3.7353590034
 H          2.1526168680        4.0161732138       -2.5337183994
 O          0.8861372293       -0.0129144626       -5.3531570249
 H          0.9529319238       -0.9711795209       -5.4730241419
 H         -0.0102890148        0.2336563111       -5.6215689482
 O          0.8054019129        1.5770311194        5.7330615697
 H          1.5698672811        1.2406162409        5.2372112119
 H          0.0322226584        1.0787150765        5.4006302010
 O         -5.2321403108        0.2654481733        3.2973784351
 H         -5.3110367386        0.3466877514        2.3329540701
 H         -4.8501194479       -0.6270567556        3.4383392599
 O         -3.8520627649       -2.0122349727        3.3585179556
 H         -4.1267364585       -2.8217836169        2.9114877600
 H         -3.1152892131       -1.6630362681        2.8006477947
 O          1.6997306523       -1.3330958361       -1.4359388199
 H          2.0011508691       -2.0002905732       -2.0933881077
 H          1.0227680054       -0.8022396713       -1.8992567652
 O         -3.6405453405       -4.0655619791        1.5231903945
 H         -3.7733602892       -4.7681166980        0.8617784084
 H         -2.7380294802       -4.1746865996        1.8648287818
 O         -1.6020467387        1.2189863440       -5.0959657701
 H         -1.0616240984        1.9554091263       -4.7186931446
 H         -2.1851254086        1.6130913830       -5.7439950941
 O         -4.1835424886        2.6981518435        0.0154585592
 H         -3.8879439042        3.5496715841        0.3772542213
 H         -4.0979538437        2.7734972693       -0.9576573950
 O          0.3548475628        1.2622063701        2.6469049078
 H         -0.3312706959        0.9273445179        3.2635629921
 H          1.2034485084        0.9783206393        3.0389262611
 O         -2.2628804016        4.5978210106       -3.4543366954
 H         -1.9094871449        4.9057337592       -2.6011053501
 H         -1.5067776063        4.1996384174       -3.9071096455
