  525
       -891.34754203
 O          1.6926507193       -0.3208067437        1.5490620473
 H          2.1862224675       -0.8552065982        0.9092837962
 H          2.2931172800       -0.0939628358        2.2770060815
 O          2.4470670993        3.2416637746        5.1078896856
 H          1.9166552258        3.8810247204        5.6327593156
 H          2.9278627845        2.6857075194        5.7430095147
 O         -2.3521211166        0.5486408728        3.5391612017
 H         -1.4936566073        0.0940461174        3.6522613873
 H         -2.1651679767        1.2243064291        2.8696539002
 O          5.8166765637        0.3332747015       -4.0171236204
 H          5.3527331684        0.9110619562       -3.3840171774
 H          5.8804278087        0.8477317890       -4.8408767407
 O          0.7552523072        2.0791577232        3.4000036473
 H          1.4346041762        2.4900574942        3.9659830350
 H          1.0178719768        2.2172943761        2.4689311621
 O         -3.6672653253       -0.4509812601       -0.8904955653
 H         -3.0215453561        0.1853198581       -1.2686577542
 H         -3.1169495254       -1.1623347642       -0.5201844240
 O         -1.2574281881       -1.6551046037       -2.8487104112
 H         -1.2572861684       -1.9391487632       -3.7792176602
 H         -0.3833022301       -1.8897771614       -2.5134717106
 O         -1.1866178579        0.0947882126        0.5527629466
 H         -1.1981929102       -0.6763373901        1.1322120615
 H         -0.4350911952       -0.0095390864       -0.0551215094
 O         -2.5919693394        4.1466044380       -1.3882819727
 H         -2.7744809306        4.8024355671       -2.0900610274
 H         -3.2653359225        3.4401933249       -1.4898879516
 O          1.5659876606        5.2413899719       -0.9997191216
 H          1.8426263004        6.0699630124       -0.5633680095
 H          2.2952842717        4.6044510635       -0.8887986081
 O         -4.0658908175        1.7827888072        1.0132039071
 H         -4.0515457455        0.8293450979        1.2449362674
 H         -3.1563154109        2.1129557133        1.1842128659
 O         -2.3524917724       -2.8324782641       -0.5436905016
 H         -2.9532985053       -3.4813893565       -0.1541807582
 H         -2.2263468443       -3.1218820109       -1.4634517345
 O         -3.0428299235       -0.2591802383       -5.1190436823
 H         -3.7409291372       -0.2616978451       -5.8060355915
 H         -2.5652042067       -1.1045313544       -5.2149593007
 O         -5.1029474041       -0.5621732423       -6.7983381435
 H         -5.5595252199       -1.0794019014       -6.0962074018
 H         -4.6845791772       -1.2065348238       -7.3809701113
 O         -4.5373285954        1.8781124025        4.4556164769
 H         -5.2107883044        1.2065462496        4.2518320895
 H         -3.6954295883        1.4285353630        4.2559991019
 O          1.7835516774        2.7624686177       -2.6838260929
 H          1.0858244181        3.0492016563       -2.0671159449
 H          1.3260514744        2.0788889458       -3.2142765659
 O          1.5160505469        2.2066909913        0.7860361447
 H          1.6566913405        1.2420933912        0.8887233945
 H          0.8019325100        2.3224205814        0.1319215415
 O          4.1261531235        0.9369823139        1.0264228604
 H          4.6752912633        1.0062051341        0.2302628439
 H          4.4426495260        0.1387804268        1.4779322337
 O          1.3297202830        5.1391424758        6.5789059314
 H          1.5207425169        5.8303102343        5.9273214737
 H          0.3525194468        5.0703805440        6.6156446865
 O         -1.5935879188        2.4109599696        1.6387250579
 H         -1.0603303381        3.1672626766        1.3412724843
 H         -1.2790771097        1.6174634688        1.1465185253
 O         -3.2886910029       -8.8590476460       -2.3283972790
 H         -3.7380296470       -8.0565472999       -2.6434250891
 H         -3.3462208117       -8.8213524111       -1.3631900355
 O          5.4321711334       -0.3859277011        4.6459562211
 H          5.2478245538       -0.3640616384        5.5944867983
 H          5.2560200596       -1.2939202941        4.3656663394
 O          5.9331402340        3.2091416952        0.8950209020
 H          5.9562550301        3.9405318602        1.5493896503
 H          5.9706634680        2.3981653390        1.4389673096
 O         -7.7047303050        2.1659967049       -3.8240450080
 H         -7.4125267264        2.8314625679       -3.1883879144
 H         -7.1154956549        2.2124716908       -4.5865597435
 O          7.7827457779        2.6598409015       -0.8333879237
 H          8.5677330647        2.4168220650       -0.3423385911
 H          7.1160050548        2.9593374616       -0.1512004162
 O          1.6912148068       -5.8788070907        1.7081980048
 H          1.3122764059       -6.4985652629        2.3437149031
 H          2.5584971286       -6.2384143163        1.4455815572
 O          2.9392243228       -0.7262880179       -4.3297151723
 H          3.2264880209        0.1354536647       -4.7035934597
 H          3.5808995355       -0.9346033782       -3.6261265021
 O         -4.1633055145       -2.0338575805       -2.8815458763
 H         -4.1516604002       -1.3852392280       -2.1346888232
 H         -3.2317717310       -2.1759188279       -3.0852806504
 O         -2.5578919711        8.6693177608       -0.1127991333
 H         -2.1034284063        9.3748638459       -0.5743114405
 H         -2.0338584719        7.8500072214       -0.2986798172
 O         -1.5906966610       -2.1052032400        2.1805705975
 H         -1.6365642234       -3.0052598618        1.8410176041
 H         -1.3179224346       -2.1618767876        3.1043515595
 O         -1.5757066840       -4.6264355972       -6.7987739637
 H         -1.7724359882       -5.3988818347       -6.2297167603
 H         -0.6311561705       -4.6777136808       -6.9966092714
 O          1.4773942524       -6.9000720405       -3.8992896855
 H          0.9935947480       -6.0386969743       -3.9388633170
 H          0.7844206282       -7.5481573298       -3.7221748866
 O         -1.0076433678        6.6183129622       -0.6953343192
 H         -1.2736202356        6.0385499903       -1.4122971919
 H         -0.3884693349        7.2836329666       -1.0728371767
 O          2.3863987402        5.1369797022       -6.4273187170
 H          2.8896792268        5.2891484080       -5.6195019033
 H          2.9335239834        4.5464423408       -6.9716430811
 O         -3.0554821731        4.0069359329        3.3780238469
 H         -3.8177276032        3.4139409616        3.4123472595
 H         -2.9406772131        4.3052154216        2.4512042603
 O          3.5984402202        2.9406725021       -7.5489754560
 H          3.5763555795        2.4601181446       -6.6907486247
 H          4.4777632403        2.8041095611       -7.8996799193
 O         -1.3312215071        2.6591365526        4.8742260642
 H         -1.9870120179        3.0902054865        4.2953665829
 H         -0.5418200510        2.5174427338        4.3077239918
 O          0.6132332577        0.6143976813       -3.7699317642
 H          0.1134911288        0.7484728119       -4.5958416589
 H          1.4197105982        0.1228871304       -3.9909735477
 O         -2.8157236066        5.1790965524        1.0167670345
 H         -2.8559772350        4.7241458746        0.1450665343
 H         -1.9929345459        5.6777584643        0.9723953297
 O         -8.0630383330       -2.9073669441        1.3625683543
 H         -8.1533872596       -1.9565402591        1.5520771783
 H         -8.2628954338       -3.0131256515        0.4202721539
 O          0.2673388761       -2.6289421680       -0.0603541517
 H         -0.7054450868       -2.5868052008       -0.1255929845
 H          0.6081445874       -1.8551704459       -0.5501844208
 O         -2.9336239349        2.6017015069       -4.1569622233
 H         -2.9766253212        2.4775815945       -5.1206058899
 H         -3.6837542670        3.1830759550       -3.9469202314
 O          1.5432246038       -1.9702127505        5.2375307717
 H          0.9411711140       -1.5216579384        4.5962395118
 H          1.6898558226       -1.2971357101        5.9177780473
 O          0.7774313041       -7.8461491099        3.5797047342
 H          1.4887920861       -7.4115426278        4.0804649233
 H          0.0047597671       -7.7647359717        4.1926236322
 O         -4.5427124902        6.6267794098        2.5374250851
 H         -4.0317974821        6.0566606213        1.9322666414
 H         -4.9338455962        6.0387857478        3.1984116950
 O         -1.3641148356       -2.3295999764       -5.3960544670
 H         -0.5077314201       -1.9701298348       -5.6892925347
 H         -1.4894265025       -3.1798433265       -5.8646202962
 O         -6.1341911756       -2.6666831990        5.0133539979
 H         -6.4386866086       -2.4309818491        5.8888327833
 H         -6.0191906333       -1.8182962544        4.5241738507
 O         -1.9039598537        0.8743886423       -2.3108252336
 H         -2.2801922399        1.3810111794       -3.0448688898
 H         -1.6104464738        0.0027430551       -2.6438693225
 O          0.1777357152       -4.6037070132       -4.0871669440
 H          0.4280916791       -4.4707741028       -5.0237020150
 H          0.5830251351       -3.8560068842       -3.5964646598
 O          4.7561306038       -1.5470694972        1.8193470141
 H          4.2271164583       -1.8088818727        2.5948710199
 H          4.1879306413       -1.7243754115        1.0337948282
 O          1.2812241003        0.5822799644        6.2042128995
 H          0.3156477422        0.5126575341        6.1401751279
 H          1.4308810027        1.2910432194        6.8486780886
 O          1.8686833221        7.0573374484        4.4892289384
 H          1.2851200831        7.6592002651        4.9563170479
 H          1.4544667191        6.9594617635        3.6091640647
 O          3.8155370755       -2.5663418580        4.0896974305
 H          3.7549743366       -3.4281354608        3.6112872059
 H          2.9065572183       -2.3183091518        4.3814756147
 O          4.6233068211       -1.8172530867       -2.4391560110
 H          4.3819377907       -2.7592245702       -2.5193747903
 H          5.5382512986       -1.7780010006       -2.1490554773
 O          3.1199743753        0.5135599418       -1.8703357224
 H          2.7854211207        1.4055815784       -2.0605465190
 H          4.0439149299        0.5989581700       -1.6152339388
 O         -1.0790667893       -0.7645811738       -8.0009623795
 H         -0.2149882025       -0.9313428038       -8.3881994209
 H         -0.9121379680       -0.2021044085       -7.2129161829
 O         -1.0705039514        6.4176928761       -4.8724689978
 H         -0.2680242363        6.6245611588       -4.3573674089
 H         -1.8363758160        6.5233840199       -4.2816912601
 O         -5.6247238979        2.0025053181       -5.8229633081
 H         -4.8128791640        2.3567401693       -6.2317410034
 H         -5.7506725750        1.1599210782       -6.2798536243
 O         -2.0176119605       -6.1110266009       -1.0670595669
 H         -1.1506424694       -5.7628525270       -0.7617008599
 H         -2.2603282148       -6.8889855820       -0.5356648043
 O          3.5478369316        3.3654765734       -0.5281006535
 H          2.8812583700        2.8466937841       -0.0219662179
 H          4.3456525090        3.3696956544        0.0249578662
 O          1.1223776295        6.4707159408       -3.3155517549
 H          1.0982471474        5.9212111402       -2.4988747262
 H          1.8427243389        6.0695566689       -3.8217922240
 O          6.3079155542       -4.8470523894        4.4127630262
 H          5.9915575268       -4.4490434933        5.2375034682
 H          6.6775547751       -4.1243944400        3.8746729291
 O         -1.4868606242        0.6434601283        6.5343723852
 H         -1.5663019891        1.2616817393        7.3043027290
 H         -1.5758890036        1.2419587441        5.7592709289
 O          3.9748662902       -7.1138148317        0.8235033193
 H          3.6549458058       -6.9868701204       -0.0837634924
 H          3.5904507659       -7.9596252597        1.1263011009
 O          2.3263628499       -9.1184215739        1.5735698151
 H          1.7973099660       -8.8809889259        2.3481152104
 H          1.7127450075       -9.1939811853        0.8317567830
 O         -5.7421210543        4.5855318220        4.1470998134
 H         -5.9965598008        4.1933268793        3.2917017404
 H         -5.5401541603        3.8330709755        4.7110982026
 O         -0.5682599758       -1.7368755765        7.4141495184
 H         -1.3299566539       -2.2384953901        7.7807308986
 H         -0.8896773253       -0.8383569457        7.2443034302
 O          0.2843905144       -4.4103881277        3.6733701221
 H          0.8755078951       -3.8338218145        3.1159665886
 H         -0.1925754776       -3.8118345721        4.2750940296
 O          2.3080408305        4.5630288826        2.3369568661
 H          2.9243580690        3.8217815611        2.5815520156
 H          1.7672030553        4.7589967567        3.1191355217
 O         -6.5285864236       -4.4841905371        3.0027804623
 H         -6.5262378295       -3.9870909190        3.8370544066
 H         -7.1989148487       -4.0522516563        2.4499209546
 O          4.1581188788        5.9176200335        1.0015703897
 H          3.4562736375        5.4014914152        1.4667987433
 H          4.9433759116        5.8362497541        1.5539978748
 O         -1.8881979028        2.4746605790        8.3642005479
 H         -2.8470384442        2.4006484050        8.1988596310
 H         -1.6375268430        3.3038959628        7.9044674849
 O          4.6592025261        5.8636756997       -1.6234377934
 H          4.4497881525        5.6957055023       -0.6750694990
 H          4.6197622521        6.8135989422       -1.7336341032
 O         -7.7426405921        2.3072216929        0.0244419435
 H         -7.7646017993        2.9453184413       -0.6978130489
 H         -7.1716011106        1.5776473855       -0.2926743850
 O          1.3037208415        2.6712467986        8.0139179474
 H          1.3500602736        3.5787025135        7.6800836297
 H          0.4426371215        2.5828698776        8.4330520663
 O          3.3284765414        1.8031263096       -5.0962566743
 H          3.7729274246        2.1612556721       -4.3048832224
 H          2.4253911592        2.1931147574       -5.1056495924
 O         -0.6540524429        3.9204383035       -3.6491139901
 H         -0.8318709918        4.7766455781       -4.0614293588
 H         -1.4743026727        3.4006108508       -3.7350764094
 O          6.2713313601       -4.0846007493       -0.9497971592
 H          6.7373482895       -4.6958845798       -0.3699024407
 H          6.6837927805       -3.2012168521       -0.8633176131
 O          5.4500682335        4.2388932759       -5.2140352908
 H          6.1159474340        4.4242196568       -4.5401408608
 H          4.5936444764        4.3246487015       -4.7471300993
 O          8.0557395656       -0.8454865794        1.3800261856
 H          7.8198788709       -1.6491182362        1.8704170339
 H          7.5376275542       -0.1234571342        1.7861168551
 O         -3.1302668744        6.0417466814       -3.1794741658
 H         -3.7901668056        5.5746055573       -3.7132506542
 H         -3.6565423688        6.6438369046       -2.5924075356
 O          6.2439667911       -4.2516455143       -3.7229275792
 H          6.2740558164       -4.2420420495       -2.7518576299
 H          5.6851244631       -4.9972839482       -3.9657164108
 O          5.7507149529        0.7520871005       -1.0743387144
 H          6.1691812284       -0.1227027207       -0.9777387900
 H          6.4578302021        1.4091888838       -1.1011187571
 O         -4.5742744530        7.3939949615       -1.4881303259
 H         -4.0123370889        7.9451867037       -0.9184362368
 H         -5.0051714562        6.7459766292       -0.9076818768
 O          2.2327472291       -5.8772999719        4.6992555448
 H          2.3115326576       -5.4987399964        5.5895354862
 H          1.4666001176       -5.3883857217        4.3108612041
 O          4.7678696431       -3.4782132242        6.3836685576
 H          4.0399389272       -3.9556166989        6.7917481474
 H          4.4030435559       -3.1265198756        5.5355118531
 O         -3.7844918938       -4.2444388074        5.6880851232
 H         -4.5528831893       -3.7441962469        5.3830836867
 H         -3.6374549681       -4.9633945834        5.0515736208
 O          3.1136894832       -1.8563639407       -0.2097321053
 H          3.1710092459       -2.8275009374       -0.1456670505
 H          3.5343967667       -1.5917763317       -1.0468807630
 O         -0.8990506774        0.9786094844       -5.9470397568
 H         -1.0078788319        1.9081962012       -6.1673446578
 H         -1.7556806590        0.6551965226       -5.5771341986
 O          0.5216598493        8.5514790563       -1.6933962675
 H          0.8240727376        8.0477392293       -2.4667449320
 H          1.2380281860        8.4888329487       -1.0444778321
 O          0.4214265791        7.0652967521        2.0987929211
 H         -0.4428074158        7.4883172437        2.2170973233
 H          0.2293123569        6.1616989253        1.7592156129
 O         -4.5636051245        2.4200714138       -1.4863156909
 H         -4.6551624273        1.6863047169       -2.1378872129
 H         -4.4372117449        2.0326598206       -0.5906911963
 O         -3.2190974809       -8.1324983192        0.3827081606
 H         -3.9602400553       -7.7742524555        0.8876680511
 H         -2.4482840066       -8.1371753504        0.9750113229
 O          4.3344052180       -0.2726467463       -7.1631388031
 H          4.6387219799       -0.9853398838       -6.5884025687
 H          4.8193722105        0.5119201442       -6.8806630504
 O         -6.5615050925        4.0051327217       -1.9406980195
 H         -5.8236449601        3.3874932097       -1.6748499872
 H         -6.4913835770        4.7535172531       -1.3319202329
 O          1.1190846304       -4.1664417081       -6.5706530513
 H          2.0631021069       -4.3596806517       -6.6262743804
 H          1.0942959723       -3.1845180479       -6.4738458636
 O         -4.0322767260       -6.3278161028       -3.1641817701
 H         -3.3205349785       -5.7522017192       -2.8157538187
 H         -4.8314587180       -5.7911264304       -3.0848394640
 O         -3.2976780926        5.7369989054        5.4173722552
 H         -3.2190240480        5.1410656178        4.6383702675
 H         -4.2391018583        5.8430646151        5.5600717950
 O          4.0516155703       -4.9357763669        2.9983767721
 H          3.3975134383       -5.4212140201        3.5435041077
 H          4.9168111923       -5.0683628629        3.4409870660
 O         -2.3403500364       -4.2049572163       -3.0713077246
 H         -2.8947381868       -4.0124096950       -3.8462144361
 H         -1.4588002229       -4.4278423333       -3.4144465702
 O         -3.2293878931       -6.1512239109        3.7678675488
 H         -3.9469237284       -6.4463560463        3.1804504790
 H         -2.5786875540       -5.7230931301        3.1733266622
 O         -4.9444423292        0.6811541943       -3.4224342274
 H         -4.1498273174        0.2557809346       -3.7827433305
 H         -5.2947081462        1.2016810747       -4.1588317584
 O         -7.7257296281       -0.2200952078        1.5524076850
 H         -8.2792944638        0.5573478843        1.4519190914
 H         -7.1179011594       -0.1932330031        0.7761625812
 O          4.7081770951        2.5703164936       -2.8599286006
 H          4.2188609914        2.8318612156       -2.0522912096
 H          5.4785319713        3.1581299609       -2.8997012295
 O          3.2047752626        4.7685680455       -3.7478838126
 H          2.6588302227        4.0201038872       -3.3978584651
 H          3.6817287555        5.1082456662       -2.9724048193
 O         -5.6350220043       -4.2466645513       -2.4034150644
 H         -6.4862103118       -3.8524208600       -2.1436247106
 H         -5.0554345104       -3.4885717163       -2.6361163457
 O          6.7219005692        4.4017541769       -2.7228505698
 H          7.2531982572        3.9232005814       -2.0703411080
 H          6.1198149287        4.9877999248       -2.2301708685
 O         -4.2083121242       -4.8339695603       -0.2370943465
 H         -3.4147075832       -5.3127451061       -0.5690783894
 H         -4.7916867908       -4.7370153897       -1.0251505912
 O         -3.5324194775       -1.7289113776        4.4193942050
 H         -3.2268224397       -0.9051972391        4.0038820684
 H         -3.7862602980       -2.3367352965        3.6951978212
 O         -1.6103237182       -4.9705767235        1.9710054009
 H         -1.3594274280       -5.8058852820        1.5387676038
 H         -0.8642132182       -4.7929390575        2.5990480330
 O         -4.0052885350       -3.8293426679       -5.2774393071
 H         -3.9228630805       -4.7249764955       -5.6086953626
 H         -3.7351673187       -3.2458009112       -6.0067149341
 O          3.8628048992       -3.9710139908       -6.4334655149
 H          4.2741026161       -3.2239940394       -5.9427154165
 H          4.4057390248       -4.0960710664       -7.2112597200
 O          6.1037321493        5.0691351759        2.8037361916
 H          5.3549962126        5.1269860246        3.4381038131
 H          6.7619156319        4.5277743502        3.2655428792
 O         -4.3520198274        2.0521480710        7.2145496454
 H         -4.3843991721        2.1423142140        6.2454138121
 H         -4.4521654896        1.1023345636        7.3660932339
 O          1.8411900201       -4.1843721379        6.7750675900
 H          1.6979502529       -3.4307921843        6.1660518241
 H          0.9455571066       -4.5371489285        6.9229898005
 O         -3.8615991186       -0.6852860797        6.8819492478
 H         -3.0110131454       -0.2174986005        6.7644884785
 H         -4.0125353164       -1.1093993330        6.0201251722
 O         -5.9469978861       -0.3410477929        3.6234188286
 H         -5.1816762466       -0.5114718331        3.0278344934
 H         -6.7015330429       -0.2564671766        3.0169773447
 O         -1.2083834145       -7.2881112563        5.2236644294
 H         -2.0208257515       -7.0226702932        4.7618437910
 H         -0.9813489587       -6.5350855513        5.7935731204
 O         -1.1429644259        4.4349015841       -6.7020977135
 H         -1.1205591908        5.2214254518       -6.1261999613
 H         -0.5075650856        4.5894852456       -7.4010308508
 O          0.1005293649       -0.4737038214        3.6254525020
 H          0.4545796566       -0.7100612337        2.7476449014
 H          0.4228533818        0.4509590769        3.7247327089
 O         -3.1811054126        2.7147354503       -6.8391060568
 H         -2.6500045967        3.5306574127       -6.8175296312
 H         -2.8365875074        2.2522005583       -7.6342166142
 O         -0.8127600362       -4.9396037435        6.7009014557
 H         -1.3816152835       -4.8412082833        7.4668526153
 H         -1.1253584560       -4.2677878420        6.0593576143
 O          2.0084023246       -1.8275523293        8.2814821968
 H          1.0742565672       -1.6342672538        8.0901257332
 H          2.1038888901       -2.7662750054        8.0663858732
 O          3.8706133489        1.8682695016        6.9961700840
 H          4.0283920369        0.9110519246        7.0498049698
 H          3.2979589340        2.0927177507        7.7371994694
 O         -0.0238974274        4.6023963642        1.0918722340
 H          0.8312144760        4.3097727083        1.4730650668
 H          0.1954720575        4.7909553441        0.1632771815
 O          4.2080298862       -0.8543142985        7.1094564188
 H          4.6423209528       -1.7212450335        7.0541070614
 H          3.3689051669       -1.0526311401        7.5778480552
 O          6.3691422944       -5.7597535578        1.2899936328
 H          5.5314877666       -6.2353073425        1.1258851052
 H          6.7329245200       -6.1440217495        2.0894095703
 O         -4.0531977438       -3.4961632190        2.4451838276
 H         -3.3612825633       -4.1447352436        2.2820432444
 H         -4.8766046199       -3.9694190447        2.6545157151
 O          3.8603777959       -4.3490371285        0.2974635580
 H          4.7429967491       -4.2734785031       -0.1050185461
 H          4.0026326019       -4.6341212368        1.2144785011
 O         -1.2467143287        4.4907714030        6.7353979420
 H         -2.0102861252        5.0336605102        6.4885120137
 H         -1.1792763863        3.8175742267        6.0082975495
 O          2.4456236425       -6.6450321312       -1.4245124977
 H          1.7593866849       -5.9974932370       -1.1422755517
 H          2.2707255426       -6.7939504921       -2.3754667827
 O          2.9259441523        0.4210497466        3.9660419617
 H          3.8094605815        0.1211852351        4.2302997909
 H          2.3830235928        0.4830496254        4.7678939442
 O          4.0082576987        2.7050402321        2.9342683155
 H          4.0587072672        2.1409978099        2.1308196093
 H          3.5934468277        2.1130071519        3.5769749408
 O         -1.2311974523       -2.7854820659        5.0579276695
 H         -0.8620383344       -2.3017205768        5.8243015370
 H         -2.1719787131       -2.5052878118        4.9624323053
 O          5.3869108223       -2.1490875609       -5.2300602126
 H          5.8228523732       -2.8557607174       -4.7158317203
 H          5.4465447436       -1.3585259591       -4.6667493962
 O          6.0392465089        1.8908712041       -6.2496003696
 H          5.7678998456        2.7694104554       -5.8716083903
 H          6.9524003349        1.9760231501       -6.5204998723
 O          0.9322618910        2.3112167802       -8.0233202190
 H          1.8037838339        2.6811065037       -8.2163066995
 H          0.8201680073        2.4681078577       -7.0606658925
 O          7.5356848574        3.1443654149        4.2085880940
 H          6.8629941879        3.2617616820        4.9345406789
 H          8.3893812514        3.1457679590        4.6389867962
 O          4.1238805822        5.2853385282        4.6119807153
 H          3.5162773593        6.0352822610        4.5898897387
 H          3.5571099750        4.4833985772        4.6032429906
 O         -6.2914520537        0.1416857750       -0.6607464769
 H         -6.6682218917       -0.0742302183       -1.5395608734
 H         -5.3408165193       -0.0720205071       -0.6931628401
 O          2.2297434995        7.6028024817        0.2120132485
 H          1.5675717028        7.5377915341        0.9335527805
 H          3.0532415039        7.2537229258        0.5891864419
 O          1.3653636497       -2.5910577432       -2.8232575068
 H          2.0942289608       -3.1650286128       -2.5192094386
 H          1.7940567446       -1.8719675938       -3.3002545273
 O         -4.0568083764       -0.7622586443        1.7963199120
 H         -3.1791204894       -1.1702547572        1.8808739735
 H         -4.5714266885       -1.3423424678        1.2008873655
 O          1.1199044615       -1.5870748214       -6.0719578856
 H          1.3300957478       -1.0785147697       -6.8917533170
 H          1.8542589129       -1.3996565864       -5.4625878044
 O          7.1532592577       -1.5434653797       -0.9702629184
 H          7.5443307059       -1.3063478419       -0.0866085036
 H          7.7424230209       -1.1464172521       -1.6414901986
 O          1.7755911437       -0.2450585467       -8.2038654677
 H          1.4578200208        0.6825973844       -8.1688764916
 H          2.7238961009       -0.2164677153       -7.9881756526
 O         -5.5451291473       -2.4458344270        0.3603263410
 H         -4.9924918910       -3.2395846646        0.3248101707
 H         -6.2740896360       -2.6504245453        0.9683862126
 O          6.8136157221       -3.1465874540        2.3124391858
 H          6.0355030167       -2.5794163876        2.1028053984
 H          6.6820534145       -3.9719392381        1.8238815303
 O          3.9601444235       -5.8415752555       -4.4577581839
 H          3.8751387569       -5.2560276274       -5.2329955702
 H          3.1743092863       -6.4069088933       -4.4434221084
 O          1.0246690440        3.0486227162       -5.4549449689
 H          1.4004628037        3.8930041515       -5.7765147013
 H          0.3995712811        3.3031639720       -4.7299073263
 O         -0.3601521023        2.6621444820       -1.0588001375
 H         -0.7828768711        1.8744347098       -1.4491865737
 H         -1.0365325718        3.3504944038       -1.1617188196
 O         -6.0410527760       -1.9037334967       -4.7070423334
 H         -5.2865192274       -1.8256370133       -4.0715281538
 H         -6.0923459505       -2.8438148821       -4.8935733263
 O          0.4231184686       -5.2087529142       -0.4885261768
 H          0.7598596149       -5.4679447525        0.3983082385
 H          0.4199597901       -4.2269588196       -0.4783176221
 O         -2.1969715582       -6.6605938763       -5.1484003905
 H         -1.5323093966       -7.0964799452       -4.5978267864
 H         -2.9870938717       -6.6176211012       -4.5813671468
 O          8.1957781631        0.1586725201       -2.7739986665
 H          8.2791899426        1.0342804172       -2.3886434163
 H          7.3654030697        0.1718932244       -3.3000918393
 O         -7.5913613031       -0.4147602432       -2.9439227739
 H         -7.0656846508       -0.8416295403       -3.6404686793
 H         -7.7622688205        0.4934572726       -3.2555445825
 O         -0.9095655309       -7.8479465771       -2.8654338804
 H         -1.1859048207       -7.0418001413       -2.3854205340
 H         -1.7024071695       -8.4281235997       -2.7871675225
 O         -2.1684986512        8.0004254692        2.5126464439
 H         -2.3235135443        8.4543606343        1.6683372093
 H         -3.0201362069        7.5590741452        2.6951027974
 O         -0.8113462110       -7.4806121144        1.3441723047
 H         -0.2649392004       -7.8346800123        0.6055177783
 H         -0.3521693330       -7.7207322317        2.1610064640
 O         -5.8770958023        5.6520467460        0.2242371982
 H         -5.8585496204        6.3343970450        0.9047697424
 H         -5.8355830787        4.8101941921        0.7352478062
 O         -5.0251301131       -6.4698875431        1.7480263076
 H         -5.7832204080       -6.0605770725        2.1834984626
 H         -4.7739534396       -5.8539399345        1.0258603382
 O          0.7540694814       -0.2797122317       -1.2180607513
 H          1.7127286174       -0.0906040287       -1.2251301957
 H          0.4444804874        0.0419427971       -2.0777525418
 O         -5.9892285994        3.4271133853        1.6973829766
 H         -5.2446039917        2.8089870849        1.5139277841
 H         -6.7556446934        3.0324065502        1.2338112635
 O          1.8024367820       -3.0722422267        2.0852507488
 H          2.2127171435       -3.8893088557        1.7786171779
 H          1.2245925455       -2.7811672383        1.3512334801
 O         -2.8574693964       -2.9986704950        7.9121527155
 H         -3.1716959300       -3.5538938866        7.1746038976
 H         -3.3546514345       -2.1675969581        7.7964627173
 O          0.6448311417       -8.4803587611       -0.6443126101
 H          1.3911677361       -7.8832614941       -0.8704820376
 H          0.0798354572       -8.4811256910       -1.4370617205
 O         -7.6094739963       -2.6694503458       -1.3913794037
 H         -7.8804088468       -1.9363495107       -1.9611625338
 H         -6.8215388893       -2.3456600881       -0.9128263101
 O         -1.0197676879        7.2112986650        4.8984719012
 H         -1.8268234130        6.8285881781        5.2739645659
 H         -1.3258312273        7.6957947274        4.1190775604
 O          0.0906857024        4.8847715426        3.9678417805
 H         -0.2674330755        5.7179646479        4.3234704192
 H         -0.5317363989        4.5750956636        3.3069250200
 O         -3.2017443913       -2.4880345254       -7.6048093012
 H         -2.7722800637       -3.3378264761       -7.7607222977
 H         -2.4931562459       -1.8319897996       -7.7413284805
 O         -5.0457302193        4.3389242138       -4.1254280579
 H         -5.5145553053        3.9944125743       -4.8881514174
 H         -5.6679464238        4.3195079747       -3.3651165322
 O          6.6055892115        1.1404984983        2.5980357117
 H          7.0205645332        1.8253056598        3.1514202268
 H          6.0833174090        0.6116263102        3.2195029593
 O          5.8125164609        3.6651965831        6.1067890354
 H          5.2601057450        4.3640495810        5.7206553399
 H          5.2002856747        2.9876678041        6.4338776785
 O          3.4323397737       -4.2082779184       -2.4179200883
 H          3.6343495904       -4.8310141569       -3.1473016318
 H          3.4349650487       -4.7203106480       -1.5981907034
 O         -1.7482062569        1.7460561322       -8.8711719201
 H         -0.8539499887        2.0854294106       -8.7235378488
 H         -1.6696283555        0.7814282772       -8.7910122219
