  251
       -422.18464201
 H         -0.4456681984       -0.2535106653        0.6619268564
 C         -0.4243852306       -0.3876804543       -0.4238437575
 H         -1.2145479564        0.2072569429       -0.8783358470
 C         -0.6651618377       -1.8609884315       -0.7504396478
 H          0.1686515135       -2.4573091996       -0.3792051221
 H         -0.7364726617       -1.9869452343       -1.8304804672
 N         -1.9007014938       -2.3559638958       -0.1547980750
 H         -1.9132884779       -2.1557928380        0.8407151816
 H         -2.6953212863       -1.8854580496       -0.5828652124
 O          0.7934738877        0.1071607113       -0.9473632938
 H          1.5359528966       -0.3752138773       -0.5195598698
 O          6.4654693135       -3.9166035933       -0.2200490655
 H          7.0244097625       -3.6813184311        0.5546938150
 H          6.5966658902       -3.1988767205       -0.8455865998
 O         -5.3270825875       -3.4589740331        0.0741509134
 H         -4.9096961474       -4.1279520532        0.6371754064
 H         -5.1448268398       -2.5999474883        0.4946364089
 O          0.9710522231       -2.5806949899        2.0840325848
 H          0.7896974712       -3.4786530067        1.7416397313
 H          1.6097140700       -2.1586374593        1.4772722324
 O         -4.8407183166        1.7212803350        0.3696438538
 H         -5.4378390933        2.4620715539        0.5807750991
 H         -3.9493998787        2.0169543143        0.5821735691
 O          2.5931949515       -0.1715527410        2.7822996916
 H          3.2653411615        0.3497533992        2.2889516828
 H          2.8975908493       -1.0980903640        2.7805588172
 O          0.2138650489       -5.0356220665        1.2541527852
 H         -0.5354282559       -5.0412479709        0.6165859090
 H          0.9584351859       -5.4408731187        0.7750185847
 O         -2.8406402799        0.2381796646        2.2205461211
 H         -2.3319065703       -0.5134745193        2.5816712547
 H         -3.3430704689        0.6767855249        2.9375111744
 O         -3.8751256720       -3.8902066556       -2.1751621931
 H         -4.4295714415       -3.7029470887       -1.3892844568
 H         -3.1969756526       -4.5009739515       -1.8574997764
 O         -1.4567979726       -1.9251889763        2.8537540224
 H         -0.5231084413       -1.9975799742        2.5699445095
 H         -1.7325559924       -2.8395251442        3.0367640306
 O          0.2219850196        1.1031582568        2.7073849097
 H          0.2562511543        1.6141749042        1.8689788133
 H          1.0186139436        0.5383630509        2.6783788491
 O          4.5605123387       -4.0695782517       -2.6600692066
 H          4.9250479701       -4.7548249646       -2.0981096843
 H          4.9529825163       -3.2280463203       -2.3378313083
 O         -5.8431468725        1.4827935169       -2.1099795984
 H         -5.3420816922        1.5283460290       -1.2658568501
 H         -6.6323884192        0.9654536570       -1.8813161648
 O          2.4874812970        3.9181806591       -1.7942862629
 H          2.2714831934        3.7829448428       -2.7374159753
 H          1.6603992910        4.2442140938       -1.3961580441
 O         -0.9069733647        0.0181453137        4.9032735262
 H         -0.5648604755        0.3259020436        4.0419825649
 H         -1.4633582394       -0.7618003475        4.7328127691
 O         -6.5659191465        0.2118660362        2.9624726461
 H         -5.8830675363        0.7713691449        3.3632937495
 H         -7.1305638713        0.7863798290        2.4224022625
 O         -4.7056917938        4.2048134104        2.9000263887
 H         -4.0655112029        4.3941772144        2.1682409438
 H         -4.4106821283        4.7474353848        3.6320178452
 O         -5.5768330871       -1.9287171462       -3.1160346873
 H         -5.0521990356       -1.4754478624       -2.4140499601
 H         -5.1617568217       -2.7940895244       -3.2045392301
 O         -1.9470217825        2.2787984752        0.8211662026
 H         -2.1555686482        1.4589101414        1.3122534249
 H         -2.0269771545        2.0565873125       -0.1267524162
 O         -0.0069937980        4.5463015573       -0.8978937859
 H         -0.2606992305        5.2227083981       -0.2502927000
 H         -0.5518806752        4.6842631212       -1.7017022247
 O         -1.0296036989        1.9879569209       -3.7292619062
 H         -0.4935949907        1.1655369301       -3.7168194984
 H         -1.5977237425        1.9170458763       -4.5238928620
 O          0.6042228433       -0.0627611779       -3.6610781710
 H          0.7807685798       -0.9515933973       -4.0227883252
 H          0.8140796458       -0.0757180496       -2.7068100090
 O          2.2251378689       -2.8494797166       -2.0250296674
 H          2.9822442885       -3.4199890951       -2.2576088467
 H          2.3877569768       -2.0023598578       -2.4756880441
 O          1.3203682660       -2.2308343376       -5.0776701026
 H          0.6120737845       -2.9098009549       -4.8911248347
 H          1.1747217391       -1.9397608163       -5.9788436128
 O          1.9706923226        1.1567880376       -5.6696028749
 H          1.2588721020        1.4187090886       -6.2863655037
 H          1.5235664927        0.6582348402       -4.9568339515
 O         -0.3724757746        4.6253780296       -5.7608127497
 H          0.4655764674        4.4255256556       -5.3104383549
 H         -0.9610694881        4.9117038446       -5.0521522703
 O         -7.4922313231       -2.3311455290       -1.2731359434
 H         -6.9305302138       -2.2466905471       -2.0731398018
 H         -6.9415673115       -2.8234529437       -0.6469095496
 O          0.8557597255        2.4317399353        0.5136853363
 H          1.0588214723        1.7199774083       -0.1198065258
 H          0.3939721563        3.1322654070        0.0207481677
 O          6.2657986568        1.6337458150       -3.2138609823
 H          6.9079609565        0.9131695029       -3.1223882168
 H          5.6090701422        1.3184658030       -3.8523576223
 O          3.2346822222       -0.4168042832       -2.6632321575
 H          3.5751000964       -0.0188596803       -3.4895622518
 H          3.1406185046        0.3164944098       -2.0004697219
 O          5.3541205296       -1.6577837340       -1.8661598282
 H          4.5594883788       -1.1845320202       -2.2486039909
 H          5.3600440768       -1.3751571622       -0.9276966968
 O         -0.2456950079        2.0919710480       -6.9071699078
 H         -1.1192851413        1.7371350918       -6.7080359035
 H         -0.2901937411        3.0350691888       -6.6659664456
 O         -4.9473064050       -1.1011777346        1.3580007260
 H         -4.1476023829       -0.5616746449        1.5500093159
 H         -5.6710031448       -0.6593694054        1.8612731746
 O          3.8601157603       -3.9241822078        0.4476886517
 H          3.7736851382       -3.5554764540        1.3420916794
 H          4.8179134347       -3.9646078684        0.2537501045
 O          2.6270388198       -1.4632599914        0.2467620236
 H          2.6198319113       -2.1433937690       -0.4588088606
 H          3.5469843952       -1.2413133103        0.4202867217
 O          6.0162545213       -1.4021480366        3.1759379086
 H          5.9681307124       -0.5938579392        3.7112650605
 H          5.8275798439       -1.1172201650        2.2562413942
 O          4.5422203820        1.3888699601        1.8893087032
 H          5.0643854617        1.4679988075        2.6993551739
 H          4.0453742415        2.2336836520        1.7728213457
 O         -2.3373956406       -1.9538119493       -3.4166237882
 H         -2.8534351519       -1.1685377477       -3.6279527155
 H         -2.9304903047       -2.5633481427       -2.9404854892
 O         -4.3459200917       -2.9043428731        3.3113752589
 H         -4.1655279566       -3.7237720781        2.8382419816
 H         -4.6170331641       -2.2536093576        2.6340732489
 O         -0.6643578203       -3.8066119990       -4.5175988843
 H         -0.3942142487       -4.3416033324       -3.7578381211
 H         -1.3088493476       -3.1529288617       -4.1844640958
 O         -8.0348290061        0.1919580377       -1.0432142026
 H         -7.8054386118       -0.7830751917       -1.0177987859
 H         -8.8179242353        0.2531845115       -1.5909971558
 O         -2.7394464806        1.7065330783       -1.6785271726
 H         -3.2403532291        2.5481127520       -1.7392740373
 H         -2.1129963579        1.7246103122       -2.4289477871
 O         -6.5924234326        3.7189439297        0.9371743272
 H         -7.3014942761        3.1050917358        1.1828812241
 H         -6.1558652344        4.0182876970        1.7479529363
 O         -1.7493674896       -4.9114959816       -0.6039227026
 H         -1.0565714017       -4.9835447796       -1.2866840366
 H         -1.8473675677       -3.9137699722       -0.4415937134
 O         -4.3803414745        1.6806438381        3.8802693425
 H         -3.8713521863        1.8018185339        4.6928961361
 H         -4.4729782108        2.5712292170        3.4811877211
 O          1.4601013592        3.3231765593       -4.1822575053
 H          0.6342359606        2.9127310322       -3.8789022015
 H          1.8738690954        2.6497871559       -4.7599194959
 O          3.7094691210       -2.6857158445        2.9323684877
 H          3.2841016578       -3.0096413143        3.7332121084
 H          4.5994256020       -2.3526678639        3.1735541025
 O          3.0131575666        1.0280428392        5.1073578587
 H          2.5178469925        0.4787872144        5.7547392126
 H          2.8229627464        0.5765190408        4.2491677512
 O         -2.8673212286       -1.9272095636        5.2585639288
 H         -3.5177879605       -1.6412368010        5.8993286827
 H         -3.3828729741       -2.3040145205        4.5008669192
 O         -3.7630313499        4.1854877100       -1.6714276921
 H         -3.5881752596        4.4985792996       -0.7639752324
 H         -4.7306073561        4.2923411241       -1.8222072869
 O         -3.5872261912       -5.0890288664        1.5037663783
 H         -3.0643030999       -5.2236690357        0.7005389380
 H         -2.9308762988       -5.1005018972        2.2177433808
 O         -4.2976945407        0.3004539752       -4.0559962237
 H         -4.8513513370       -0.4867480803       -4.1557514123
 H         -4.7627956874        0.8368953420       -3.3836400422
 O         -1.5417043688        4.6363826767       -3.1075086963
 H         -2.4228632784        4.6209086209       -2.6890027790
 H         -1.3470094244        3.7128333999       -3.3302985090
 O         -4.0746016998       -0.7016668134       -1.2441833714
 H         -3.6415135806        0.1452848394       -1.4515442828
 H         -4.5618623706       -0.5743044184       -0.4169552370
 O         -2.3596327707        2.0137634303        5.7448104213
 H         -2.0093668265        2.3411906847        6.5723298479
 H         -1.8024391738        1.2296514737        5.4919900407
 O         -2.8142650481        1.7386464613       -5.7210019445
 H         -3.3964956564        1.1475278870       -5.1938968135
 H         -3.3260395714        2.5235917745       -5.9211090139
 O         -6.4009453119        4.1304737235       -1.8434782690
 H         -6.3514626082        3.1846011142       -2.0847594984
 H         -6.6063230456        4.1495511021       -0.8982847654
 O          2.2910818703       -5.9011267569       -0.2853586862
 H          2.8007825922       -6.6890006945       -0.1006061713
 H          2.8766666058       -5.1318368259       -0.0625581920
 O          5.7620485688        2.1320437439       -0.6355773971
 H          5.4659536070        3.0657062908       -0.4996304749
 H          5.9557449360        2.0364592754       -1.5936672452
 O          5.5796484091        1.0229060771        4.4507048848
 H          4.6625231380        1.0292164408        4.8194099819
 H          6.1331368261        1.5023759443        5.0650682358
 O          4.4504452727        0.3092078335       -4.9185986422
 H          3.7064415258        0.6734946439       -5.4237440975
 H          4.4777242924       -0.6466519369       -5.1153637801
 O          4.0855975064       -2.3955971732       -5.0066539505
 H          4.3386924724       -3.0810715475       -4.3794012096
 H          3.1129702882       -2.3910133502       -5.0101900953
 O          2.9722257100        3.4973401640        1.7484772457
 H          2.2591868593        3.1363246526        1.1750493683
 H          2.5720626157        3.5107986124        2.6391544541
 O          7.6577264806       -0.7238439076       -2.7240587265
 H          6.7669842268       -1.0905483936       -2.4892525629
 H          7.9713275060       -1.2225509926       -3.4779141132
 O         -0.7654087812        6.2429355109        1.1210862907
 H         -0.3932608993        5.9021261560        1.9784143183
 H         -0.6021721366        7.1852935394        1.1139509004
 O          7.9468005078       -2.8426850862        1.7319772490
 H          7.3854722266       -2.4705651357        2.4283284308
 H          8.2486652277       -2.0862158680        1.2076781237
 O          1.3782582616       -0.6818874623        6.3041496943
 H          1.5815934188       -1.4967503249        5.8058885355
 H          0.5346065915       -0.3761853519        5.9307839315
 O          1.5410663950       -2.9027437245        4.7142194364
 H          0.7426125561       -3.2903983139        5.1026167012
 H          1.3102383712       -2.7088004382        3.7826424399
 O          8.1236675120       -0.6212005829        0.0191666361
 H          8.2713681734        0.3024981346        0.3177937309
 H          8.1650052624       -0.6065256310       -0.9500448604
 O          1.5702496081        3.0781733195        4.0301264911
 H          0.9651430633        2.4315464881        3.6111050289
 H          2.1447391133        2.5332721930        4.5970770287
 O         -1.9654899862        3.5093995655        3.4684456314
 H         -1.6539843954        2.9209209049        2.7721302829
 H         -2.0327342994        2.9865301414        4.2839353740
 O         -0.0071678021        5.3335352219        3.4619529369
 H          0.7433944885        4.7548342492        3.6530350115
 H         -0.7886819576        4.7505600715        3.5589157727
 O          8.0293406841        1.9378591239        0.7087578478
 H          8.5730924611        2.6500521651        0.3736984784
 H          7.1450054941        2.0389633684        0.2743222059
 O         -0.9029595007       -3.7065851723        5.7905211422
 H         -0.8832444308       -3.8474933501        6.7366161505
 H         -1.5867539390       -3.0218461400        5.6179975735
 O         -8.2740753284        1.5745844478        1.2621563528
 H         -9.1849022496        1.4071485910        1.5046319086
 H         -8.1079806605        1.0739558979        0.4316658175
 O         -3.0216643680        4.6940923505        0.8990306889
 H         -2.5462264101        3.8331446526        0.9220931606
 H         -2.3233510419        5.3605598837        1.0100844661
 O         -1.5674769117       -4.6392640036        3.2820927125
 H         -0.8083926560       -4.8831651794        2.7268868115
 H         -1.2653744527       -4.6045616311        4.1988544266
 O          4.6509329068        4.4951079125       -0.2222248783
 H          3.9738047233        4.4722784277       -0.9195187952
 H          4.1560430994        4.3361171377        0.5959926115
 O          0.4550521516       -4.8584071688       -2.1741523541
 H          0.9666101840       -4.0241372018       -2.1461139086
 H          1.0311582319       -5.4921941972       -1.7280054851
 O          3.1684546775        1.4719726898       -0.8813275754
 H          2.8820051311        2.3400965406       -1.2296119175
 H          4.1056762292        1.5977425057       -0.6426489805
 O          5.5361887493       -0.6933014660        0.6052792658
 H          6.5053907374       -0.6304383872        0.4237956424
 H          5.2401586459        0.2184729644        0.7988863120
