  116
       -192.99711190
 H          2.6804059598        0.5804015481       -0.7479089485
 C          2.9076976491       -0.2746507692       -0.1028829500
 H          2.4621596029       -1.1716079112       -0.5404996801
 C          2.3149303741       -0.0626450556        1.2846915477
 H          2.6173973972        0.9123803773        1.6816007061
 H          2.6966600094       -0.8279193645        1.9626344157
 N          0.8687046436       -0.2199679779        1.1995954628
 H          0.4850962473       -0.1757313959        2.1370329851
 H          0.4624385734        0.5344677732        0.6504052494
 O          4.3190974465       -0.4426663289       -0.0084516662
 H          4.6042878829       -0.7493823523       -0.9061858341
 O         -2.5131175627       -1.0362028041       -3.9158730541
 H         -3.3173649132       -1.5210003486       -3.6350965488
 H         -1.8506597354       -1.1985561368       -3.2278372023
 O          0.2457929876        1.3414701282        4.9437049260
 H          0.7156897917        1.8412036461        4.2607176413
 H          0.4607199231        0.4102415034        4.7757286352
 O          2.4875440064        3.2783904081        0.3586280020
 H          3.3984261855        2.9463736178        0.5207073368
 H          2.0371574222        3.2205713309        1.2170246707
 O          6.3076295889        0.2724079752       -3.4463391985
 H          7.1577236276       -0.1685311612       -3.4188439244
 H          5.6511915846       -0.3926478448       -3.1505668000
 O         -5.9282832676       -1.3729179052        0.7583714991
 H         -6.2016505339       -0.9818328064       -0.0831029102
 H         -5.5453475568       -0.6366802700        1.2642155877
 O         -4.6689025373       -2.1707112603       -2.7825550941
 H         -5.2552668020       -1.4586621837       -2.4865738198
 H         -4.2873940389       -2.5339691782       -1.9687901804
 O          5.9382899445        2.5267133254       -2.0592921212
 H          6.0685790812        1.6892964781       -2.5617543116
 H          6.5213736930        3.1758446216       -2.4537491554
 O         -1.8516658263       -3.4458869111        1.5367387558
 H         -1.5777058048       -4.1740736838        2.0949744473
 H         -1.8910184180       -2.6427802264        2.1105409691
 O         -3.7181469688       -2.4739180107       -0.2278270884
 H         -3.1741378715       -3.0085950674        0.3677025345
 H         -4.5629342624       -2.2620056935        0.2337919322
 O         -4.4240049688        0.6433303588        1.8608008380
 H         -3.6934292226        0.4449420927        1.2397415387
 H         -4.4063761327        1.6168791080        2.0062979908
 O         -3.9547879755        3.2062113366        2.4143431603
 H         -3.4362282231        3.1180461455        3.2253385115
 H         -3.3329745374        3.3965406185        1.6949393364
 O          0.8014623674        2.8114496753        2.5608880288
 H          0.0880140603        2.2010797036        2.2659928683
 H          0.3710187089        3.6427085548        2.7660104691
 O          2.2763610071        1.3396623574       -4.0799418373
 H          2.6707514689        1.5726020262       -4.9201382572
 H          2.6505076795        1.9694433766       -3.4119051078
 O          1.8981852259       -1.1931131977       -3.1016050845
 H          2.0652786423       -0.3550785029       -3.5645888715
 H          1.0338661778       -1.0869688617       -2.6826244394
 O         -6.0601581765        0.0285730732       -1.7042261938
 H         -5.3753076025        0.7303569741       -1.6855128187
 H         -6.7647059371        0.3377034232       -2.2736053524
 O         -0.2501615329        1.5103375763       -3.1088030002
 H          0.5848297454        1.5053338399       -3.6073532987
 H         -0.3971321454        0.5972199738       -2.8108586134
 O         -2.7342275916       -0.0289273846       -0.2119906871
 H         -3.2626256928        0.4990970405       -0.8208881149
 H         -3.0798226739       -0.9555086049       -0.2639852993
 O         -2.8670827863        1.5718923135       -3.8884514551
 H         -2.8309571690        0.5901915254       -4.0288035444
 H         -1.9380082082        1.8116820646       -3.7328338813
 O         -1.3927693996        1.2596612720        2.1327265605
 H         -1.7986060843        1.6118657420        2.9584471656
 H         -1.8074847120        1.7212952125        1.3818657029
 O          0.1307549340        2.1657665994       -0.5272453147
 H          0.0685108366        2.0493966844       -1.4941515281
 H          0.9629043441        2.6285214432       -0.3375701648
 O          1.8629142544       -3.2363758015        2.3818170137
 H          1.3754766198       -3.1730245461        1.5464354933
 H          2.7968356926       -3.2165212137        2.1312036993
 O          1.8938529167       -3.7706420526       -1.7987082343
 H          1.8566110168       -3.1043077181       -2.4940291251
 H          1.3138057899       -3.4517885774       -1.0894976411
 O          4.9611792493        2.2125984571        0.5572153101
 H          4.8154788510        1.2537311059        0.5094231424
 H          5.4326537871        2.4361710130       -0.2570536200
 O          0.2901792738       -2.5270132144        0.1085563800
 H         -0.5121456277       -2.8903454817        0.5242301971
 H          0.4926391078       -1.6450772565        0.5753795741
 O         -2.2864251697        2.9695747378        0.2101578294
 H         -1.3736665334        2.8123469013       -0.1195839350
 H         -2.8784149268        2.6062678092       -0.4639361399
 O          0.6870386532       -1.2630139072        4.0075635975
 H         -0.2435439699       -1.4332421017        3.7912600286
 H          1.1871486599       -1.9786773395        3.5808385002
 O         -4.1278785245        1.9435153147       -1.7163015885
 H         -3.6299714200        1.8054934428       -2.6010456580
 H         -4.5785559634        2.7847642618       -1.8007522780
 O          3.2494371331        3.0581883437       -2.3481071018
 H          4.2038238190        2.9113285987       -2.2250402171
 H          2.8946526912        3.2531848726       -1.4697554465
 O         -3.9689102912       -0.1690155534        4.3333199303
 H         -4.7612570504       -0.5086603992        4.7477427876
 H         -4.2278123622        0.1292936205        3.4238784402
 O         -2.2979676859        2.0769505908        4.4805103951
 H         -1.4101732964        1.8656861036        4.8497369979
 H         -2.8744361688        1.3390545712        4.7294547634
 O          4.5889818287       -1.5079444209       -2.4135246666
 H          3.6742545926       -1.4513750790       -2.7368119595
 H          4.6922586458       -2.4403302136       -2.0803005926
 O         -0.6775495689       -0.9005658587       -1.7851374286
 H         -0.3260337770       -1.6155828387       -1.2116190194
 H         -1.3072080240       -0.4372515995       -1.1955053667
 O          4.4939042403       -2.7950727797        1.3566747703
 H          5.2646003444       -2.8139360486        1.9240955623
 H          4.4622437313       -1.9013862472        0.9504335294
 O         -1.8696711523       -1.2564193290        2.9941619369
 H         -2.5931198223       -1.0365416012        3.6043341415
 H         -1.6890140745       -0.4289992897        2.4998664061
 O          4.5409050631       -3.8537740471       -1.2524125876
 H          4.5632196063       -3.6746733700       -0.2996442380
 H          3.6011685795       -4.0354689954       -1.4578438850
