  281
       -473.11943969
 H          0.0440949417       -1.0771940879        0.0710883722
 C          0.2896087605       -0.0303776294       -0.0920868366
 H          0.5526192940        0.4252765778        0.8561385179
 C         -0.8990587294        0.7166600263       -0.6830947343
 H         -0.6010946281        1.7457010576       -0.8898752934
 H         -1.7101342165        0.7230927107        0.0401058343
 N         -1.3977546121        0.1327498121       -1.9229726352
 H         -0.6551583318        0.0893678735       -2.6094495836
 H         -1.7431153476       -0.8067622715       -1.7619915621
 O          1.4085331345       -0.0102995305       -0.9601461999
 H          1.6972255704        0.9163261811       -1.0619635993
 O         -2.7944765100        2.1762214113       -2.6632176600
 H         -2.3529618054        1.3510912246       -2.2959023680
 H         -3.1644879093        2.6360051523       -1.8763201104
 O         -0.2914764178        3.7923469813       -1.1804304118
 H         -0.9543667509        4.4158837618       -1.5234228538
 H          0.0871230303        4.1771402972       -0.3783880876
 O         -1.0345575701        2.8762342497        1.9183188681
 H         -1.7163872742        2.2864853780        1.5531948372
 H         -1.1062029559        2.7202207105        2.8806669432
 O          2.3345206231        2.5234293445       -0.5471231798
 H          2.0748966329        2.5227450766        0.3938095063
 H          2.2739584783        3.4403776030       -0.8410728533
 O          4.2472890388        0.5955605753       -0.0133589159
 H          4.9625511518        0.5222361079       -0.6660930140
 H          3.6452616115        1.2868423292       -0.3298136429
 O          3.7155201765       -1.3543657132       -2.3711638426
 H          2.9420692768       -1.8465556317       -2.6891794129
 H          3.4456254282       -0.4228383380       -2.4303221816
 O          3.9281875209        3.9854733840       -2.7050771874
 H          4.3997230890        3.4263581927       -3.3387016203
 H          4.2800348655        3.7243425049       -1.8345999014
 O         -1.3160954514        0.0553732389        2.5717915400
 H         -0.3788111338       -0.1192262656        2.7343262988
 H         -1.7717303077       -0.0829591744        3.4168128618
 O         -3.0537328392       -1.3171912474        1.0207923921
 H         -2.5663975412       -1.7122578114        0.2630579304
 H         -2.4011564802       -0.8369699756        1.5657020931
 O         -3.7809985900        3.4799002815       -0.5702887586
 H         -3.8097383723        2.7639551335        0.1004185357
 H         -3.1719168562        4.1354086125       -0.1883571395
 O          1.4679613040       -0.2200385552        3.0080189929
 H          1.4303610176       -0.9053427772        3.7162348121
 H          1.9686585800       -0.6457734857        2.2755917368
 O         -3.4514623554        4.3514445786       -4.1648543764
 H         -4.3345726894        4.4903439711       -3.7591540167
 H         -3.1368655546        3.5363172084       -3.7370414407
 O         -0.1995352640       -3.1882274821        1.1471175149
 H         -0.4391688879       -4.1395513336        1.2711860356
 H          0.6792086363       -3.2226100105        0.7324433655
 O         -0.5621148786       -5.7855211024        1.3073509697
 H          0.3715210027       -5.8692116124        1.5956305768
 H         -0.5767618862       -5.9450843040        0.3522228599
 O          1.8887901577       -3.1731594478       -0.5765475327
 H          1.4195595587       -2.7341511608       -1.2951850012
 H          2.4439720292       -3.8463863970       -1.0229925006
 O          1.5275095711        2.3372800653        2.0001768915
 H          0.5859235396        2.6138470942        1.8795633403
 H          1.5056969900        1.4350964206        2.3502787144
 O          5.5097313283       -4.4138765323        2.7753954596
 H          6.1698455479       -3.8604367087        2.3181124496
 H          5.1896792654       -5.0321931033        2.1061892898
 O          2.9774832249       -1.3928775598        1.1476988407
 H          3.4161265865       -0.6735351411        0.6308744942
 H          2.6041236426       -1.9968445567        0.4748826805
 O         -0.8856180793       -2.8435022624        3.7454988171
 H         -0.6365654454       -2.7579633465        2.8033116166
 H         -1.3684039409       -3.7077591427        3.7815605895
 O          3.9369774951       -0.7520300275        5.5131856442
 H          3.4876308627        0.1069275743        5.6069220879
 H          3.2555825195       -1.4248021016        5.6062752742
 O         -4.0446293061       -3.6116817964        1.8776700220
 H         -3.6826313574       -2.7469854819        1.5620737587
 H         -5.0047292914       -3.6005728994        1.6435301136
 O          1.4216608438       -2.1483425251        4.8368387408
 H          0.5685407580       -2.5561720425        4.5694964065
 H          2.1005553689       -2.6795962379        4.3693862287
 O          1.9712092813       -5.4628398012        2.0123726332
 H          2.7100416213       -5.5341984866        1.3863060832
 H          2.2279727028       -4.7395759912        2.6059079015
 O          0.2566607863        4.7384226317        4.0694246005
 H          0.2801106012        4.8136418516        3.0958934507
 H         -0.0806824449        3.8507742274        4.2711736943
 O          4.8400975142        2.3255909603        2.3332438869
 H          4.7123208260        1.3732941106        2.5077147822
 H          4.3779655759        2.8080593971        3.0248040949
 O          7.3444815397       -0.4799213075        2.6745561136
 H          7.7220012420       -0.7038001541        3.5258354999
 H          6.3665155373       -0.4064310685        2.8130898055
 O         -3.4897474517        1.8796349908        1.5305945701
 H         -4.0615921412        1.1186353414        1.7374000291
 H         -3.6829671968        2.5704569322        2.1861277302
 O          5.7169353187       -2.1186609906       -3.9707408278
 H          4.9975994205       -1.7880563305       -3.3823882759
 H          6.5437130642       -1.7829902780       -3.5793281266
 O         -6.9606365480       -1.0146461493        0.2048605918
 H         -7.7119074376       -0.4773123190        0.5101175259
 H         -7.0467497144       -1.0364690685       -0.7789945625
 O         -5.8907295748       -4.0894151524       -1.5172511866
 H         -6.6298180140       -4.1831379353       -2.1180751431
 H         -5.4427683071       -3.2496242655       -1.7687895831
 O          1.0183786447       -1.7723021612       -2.8746636122
 H          0.6898477868       -1.3379335775       -3.6849404356
 H          1.1112909299       -1.0480470956       -2.2129921395
 O         -6.1559344825        1.8855692828        3.6688010112
 H         -6.3256687003        2.6474443644        3.0956019519
 H         -5.8786498560        1.1642586148        3.0574143469
 O          7.9339289833       -1.3365046729       -2.5896675019
 H          8.0694887320       -2.1334675969       -1.9974949523
 H          8.7702258114       -1.1865370425       -3.0291774815
 O          3.1936375896       -4.7557573857       -2.2984386999
 H          3.0617215285       -4.2037083477       -3.0881729328
 H          2.5630024828       -5.5163652703       -2.4147983115
 O         -7.2293953789       -0.9868371223       -2.4406488998
 H         -6.3383686554       -1.3149631646       -2.6523145109
 H         -7.2310018074       -0.0491992364       -2.7032123281
 O          4.7397588156       -0.2962383073        3.0362225113
 H          4.4834046381       -0.5521208326        3.9542468688
 H          4.2272125202       -0.8342644389        2.4186549353
 O         -4.2634049099        0.7081824783       -4.2552601307
 H         -3.7782503770        1.2080224683       -3.5543247144
 H         -4.0655019487        1.2163826044       -5.0718698304
 O         -6.5489684124        1.6576017997       -2.8857694592
 H         -5.7565301100        1.3001772155       -3.3207910063
 H         -6.3725468409        1.7091700020       -1.9288750819
 O         -8.6850199814        0.8977390011        0.9833755347
 H         -8.6548005701        0.7742160933        1.9778442248
 H         -9.6029893841        1.0288633414        0.7515203919
 O          2.4119511308        1.4476734097        5.0707449638
 H          2.1485193481        0.9785260382        4.2599240431
 H          2.6570639086        2.3487896555        4.7946984171
 O          4.9780490099       -2.7659838534       -0.4791411187
 H          4.4652326306       -2.1110012701       -0.9860413967
 H          5.4251644324       -3.3124858577       -1.1587939209
 O          5.0142851469        3.4585111212       -0.1877354462
 H          4.8499187980        2.7775568865        0.4885721944
 H          5.9585310252        3.3831413769       -0.3964703938
 O          0.1424785432        0.1738838867        5.9041050243
 H          0.9131256101        0.7611661406        5.9507886520
 H          0.5162414340       -0.7004939774        5.7308795618
 O         -5.5844924845        4.2775433293       -2.5533253434
 H         -5.0939040191        4.0053980299       -1.7603816353
 H         -6.1194429920        3.5071409991       -2.8039723745
 O         -0.9251885541       -5.5429964304       -1.4706363609
 H         -0.9051302401       -4.8345296114       -2.1395695715
 H         -1.8542491087       -5.5951517567       -1.2060765885
 O          2.3953615034       -0.7202916372       -5.3681764377
 H          2.4815633164       -0.1001092913       -4.6027269986
 H          1.4672611476       -0.6724686219       -5.6253958237
 O         -3.4254262490       -4.8105338957       -0.5179604800
 H         -4.2918017610       -4.7877942997       -0.9458701225
 H         -3.5851209849       -4.5620722507        0.4128441958
 O          3.0430619844       -3.2043009280       -4.5989559079
 H          2.7402769140       -2.3091334780       -4.8786442391
 H          3.9421736745       -3.2795865679       -4.9262828759
 O         -6.3425832287        1.8946667708       -0.1423522311
 H         -6.1653502405        2.6757476904        0.4051797726
 H         -7.1835757741        1.5431396545        0.1899841562
 O         -3.6651711473        1.7141000380        4.7760629023
 H         -3.6176615835        0.7606936582        4.8882448057
 H         -4.5734201106        1.9076642347        4.4720448944
 O         -4.6581332989       -1.8683344886       -2.3363012824
 H         -3.9480075326       -1.8853149653       -2.9885055982
 H         -4.4868671618       -1.0706273168       -1.7696050199
 O         -6.2024787036        3.9107533920        1.7516738257
 H         -5.3208235783        4.1490333817        2.1162639563
 H         -6.6936553877        4.7240041587        1.6448169763
 O          6.3062519850        0.6945356045       -1.7977451359
 H          6.9077770367       -0.0392182729       -2.0110598890
 H          6.8450546227        1.3919066936       -1.3858933542
 O          2.2276830273        5.4486141695       -1.1595788073
 H          2.7674730064        5.6374651565       -0.3821084872
 H          2.8428876185        5.3057666384       -1.8893787160
 O          1.2851728979        3.2009308870       -3.2635569992
 H          2.1306808257        3.6673924716       -3.1716854131
 H          0.7504232806        3.4248636077       -2.4691710666
 O         -2.0942489862        5.1263299411        0.8039224437
 H         -1.5119283446        5.8127709394        0.4530857512
 H         -1.5228047792        4.4156096124        1.1649495139
 O         -2.2933861798       -0.9264595794        4.9410999436
 H         -1.7999558552       -1.6892822794        4.5565153544
 H         -1.7162884031       -0.5587686950        5.6192574780
 O          1.3611715569       -6.5516421703       -2.7450330631
 H          1.1508118290       -6.2072269511       -3.6383638361
 H          0.5664311544       -6.3904729613       -2.2155062083
 O          3.5017340999        5.1486599953        1.3287424689
 H          3.5897383256        4.8830269578        2.2541187438
 H          4.1190117063        4.5825527167        0.8259729260
 O          5.1173838649       -0.1325964341       -5.7817258196
 H          4.1744751138       -0.2860540406       -5.9321114035
 H          5.4264036175       -0.9021088468       -5.2703038148
 O          2.6921278983        0.9366016872       -3.3085974210
 H          3.5592908196        1.3400178670       -3.5455099338
 H          2.0689508245        1.6898707419       -3.2589028374
 O         -4.6700027494       -1.9355773547        3.9526467500
 H         -4.3700979238       -2.6970101965        3.4238541974
 H         -3.9074762925       -1.6323381656        4.4630403755
 O         -6.5580840873       -3.4689977280        1.0859688454
 H         -6.4626075742       -3.9402936891        0.2434794172
 H         -6.7340544291       -2.5403605210        0.8072767619
 O         -7.4241195955       -2.0592516650        3.5279205515
 H         -6.5306131337       -2.0258778656        3.8961294852
 H         -7.3891527587       -2.6977108474        2.8079220564
 O         -0.9432102314       -3.5553242163       -3.4130743637
 H         -0.2590127367       -2.9371154188       -3.0908728719
 H         -1.7011659994       -3.0091814105       -3.6417214228
 O          3.1650910790       -3.2599860069        3.1794087925
 H          4.0572818928       -3.6790936949        3.1854579327
 H          3.1465636722       -2.6935551184        2.3925077852
 O         -0.1749977642        6.7554367916       -0.6104701244
 H         -0.8050007954        6.6625736627       -1.3386115807
 H          0.6694787545        6.4318037712       -0.9660968674
 O          7.6388179086        2.7269492503       -0.5517298510
 H          8.4343716197        3.2192967193       -0.7486375810
 H          7.6748231732        2.4989389152        0.4221781286
 O         -0.8224409096        2.1226710469       -4.6034722098
 H         -0.0266540879        2.6061179410       -4.3310042596
 H         -1.4474292555        2.2185256050       -3.8634938416
 O         -0.3133109086       -0.4910114786       -4.8548497225
 H         -0.4624108529        0.4797206305       -4.8386205091
 H         -1.1983366233       -0.8892038238       -4.8053954699
 O          5.1035436761        1.8178052427       -3.9494106724
 H          5.2233427867        1.2207515246       -4.7205614470
 H          5.6067559549        1.4190641184       -3.2116975978
 O         -2.3854188577        5.1194969849        4.9063408111
 H         -1.4492331176        5.1991939658        4.6496140659
 H         -2.4246793443        4.4375979272        5.5797295704
 O          0.8744197613       -5.0130790333       -4.9168048177
 H          0.1344584627       -4.5233254677       -4.5237239911
 H          1.6207841384       -4.3971302346       -4.9387980880
 O         -3.7956944129        4.3319654761        2.7598952509
 H         -3.4147053768        4.6132945512        3.6156748704
 H         -3.2624754854        4.7813472713        2.0840241358
 O          0.7555539686        5.0002842672        1.3550401430
 H          1.7299519997        4.9934460841        1.3509793645
 H          0.5021817002        5.8575963382        0.9932926572
 O          5.8828512290       -4.3686653133       -2.4416907665
 H          5.9002322867       -3.7080864656       -3.1606706081
 H          4.9903589480       -4.7576643078       -2.4651188605
 O         -2.1361030438        5.6225707800       -2.2125141236
 H         -2.9104776250        5.7497461452       -1.6591860225
 H         -2.4899740552        5.2828461649       -3.0656939088
 O          2.8291942363        3.8109673152        3.7538644910
 H          2.3597197559        3.3192752755        3.0342328983
 H          2.1395245568        4.3880027751        4.1215521523
 O         -1.0806402966        2.3476491573        4.5567527939
 H         -0.6735692174        1.5744522085        4.9736500230
 H         -2.0466933114        2.2186541682        4.6486388348
 O         -2.8751861703       -1.4980188699       -4.4991311015
 H         -3.3907424193       -0.6422831004       -4.4013925493
 H         -3.2062253691       -1.9065697665       -5.2998217462
 O          4.1779844449       -5.2201011370        0.4122990537
 H          4.3474568321       -4.2848935380        0.1829495849
 H          4.0852202290       -5.6843200339       -0.4216262781
 O          7.5332403555        2.1763811807        1.9828436675
 H          7.6390216136        1.2252495447        2.1575593496
 H          6.5925541697        2.3605449894        2.1718491776
 O         -1.8396751238       -2.6406429092       -0.9081753107
 H         -2.4479006982       -3.4017321556       -0.9594950371
 H         -1.1602075126       -2.9062833038       -0.2556018985
 O         -2.2444974371       -5.0521587928        3.3967287802
 H         -1.7052275533       -5.5382024323        2.7547885407
 H         -2.9873647740       -4.6871019670        2.8908508678
 O          8.2224064889       -3.4655681745       -1.1273763415
 H          7.5729698181       -4.0729705818       -1.5065821320
 H          7.9300018450       -3.2876430717       -0.2104226360
 O         -3.2112608055        2.3368644221       -6.1044119826
 H         -3.4497929891        3.2098365765       -5.7569026036
 H         -2.2725853684        2.2370048742       -5.8902011875
 O          7.0300489511       -2.7563631764        1.2053524950
 H          7.2608506527       -1.9170863180        1.6391264172
 H          6.2309527756       -2.5832418138        0.6656239764
 O         -4.2555621817        0.2530290850       -0.8552654625
 H         -5.0137125223        0.7785124198       -0.5524491072
 H         -3.9058767905       -0.1967828479       -0.0661907278
 O         -8.5086432156        0.4603802805        3.5336226592
 H         -7.7510302693        0.9986397811        3.8242616333
 H         -8.2173088046       -0.4687259046        3.5977082275
 O         -5.2710024141       -0.0480712425        2.1013398564
 H         -5.0565571435       -0.7730209507        2.7195507396
 H         -5.8294689721       -0.4158347002        1.3918104347
