  99
       -167.93894298
 O          1.3129085085       -1.4006493577        3.4939941666
 H          1.5417913826       -1.8761014582        4.2947454158
 H          1.9296615275       -0.6234326963        3.4524247944
 O          5.2692568847        0.2056748991        2.1474382121
 H          5.0864123577        0.8502498548        1.4121160986
 H          6.0817985950        0.5022057506        2.5606804041
 O          5.0210678738        1.2649384224       -2.3829922777
 H          4.7111546239        0.4088342101       -2.7344879806
 H          5.9616328259        1.3177009376       -2.5564499407
 O          0.2180119711       -3.4272068938       -2.7233531035
 H          0.6534800776       -2.5980853551       -3.0159441182
 H          0.2560379318       -4.0343035839       -3.4630447982
 O          1.3327251251       -1.0442480630       -3.3560098732
 H          2.3004834372       -0.9997681328       -3.4412938805
 H          0.9697636743       -0.2785201916       -3.8586871147
 O         -2.2657532731        0.2187003652        0.6808984368
 H         -2.7043007858        0.4118936100       -0.1668433119
 H         -2.7541257010        0.7392829314        1.3400969710
 O          4.1103905805       -1.1453888306       -3.3894208786
 H          4.0768287382       -1.6873338133       -2.5658553673
 H          4.5960326755       -1.6542998770       -4.0397282511
 O          3.7586601031       -2.3212317903       -1.0655750616
 H          3.1040813402       -3.0277990834       -0.8539621467
 H          4.4605826657       -2.3735358403       -0.3863798675
 O          2.0497756049        2.9089428502        1.8740942546
 H          2.2343345751        3.6810749433        2.4119509616
 H          1.0712936725        2.7334010177        1.9727184769
 O          2.4262798699        2.1677536883       -2.5158175547
 H          2.4810449871        1.3859220921       -1.9302173275
 H          3.3262531627        2.2806897515       -2.8394304946
 O         -0.5019579166        2.3223937350        2.0119739843
 H         -0.8076713707        2.2135027821        1.0968576390
 H         -0.7177579215        1.4959653975        2.4767809891
 O         -0.9099918120        0.0880360167        3.6067056038
 H         -0.1520163892       -0.5316012524        3.5259124293
 H         -0.8235094251        0.5106753152        4.4635105053
 O          4.6690159720        1.9759980450        0.3059696458
 H          4.6959049089        1.6810192369       -0.6220394529
 H          3.7674164217        2.2503591787        0.4956859002
 O         -0.7029322021        2.2653171693       -0.7610576780
 H         -1.2367992525        2.4690841796       -1.5432647625
 H          0.0316760150        2.9312307915       -0.7537912853
 O         -4.5717953689       -2.4619838511        2.2322679558
 H         -5.0728990435       -3.0631700198        2.7838494309
 H         -4.2597390247       -1.7270804045        2.8258044644
 O         -2.0821001301        2.2534202758       -3.1273537832
 H         -2.5598735907        2.8922649120       -3.6572649674
 H         -2.7473052464        1.6958596653       -2.6727683892
 O          2.8897628090        0.7073239437        3.4147820972
 H          3.7769128076        0.4835683993        3.0800483149
 H          2.6024702041        1.4812129186        2.9007271507
 O         -3.7372834520        0.8150952873       -1.5803654505
 H         -4.0626321288       -0.0524487610       -1.8821329527
 H         -4.4639392396        1.2082432515       -1.0664741282
 O         -2.1244658486       -2.4100561927        1.0721658332
 H         -2.1577432768       -1.4246903044        1.0560614031
 H         -2.9743400528       -2.6752057539        1.4614074735
 O          5.5302563017       -2.2316578109        0.9359265389
 H          5.5868629705       -2.9087262296        1.6108903042
 H          5.4406994767       -1.3730235740        1.3928399574
 O         -3.9181194696        1.8191283114        2.1750455738
 H         -3.6589272152        2.7360656972        2.2740129734
 H         -4.6327491052        1.7803643568        1.5061200187
 O          0.3639528138       -3.4608504356        1.7230819188
 H         -0.5578267731       -3.1976939982        1.5693880160
 H          0.7310068626       -2.8118904964        2.3359511501
 O         -4.4677809490       -1.7421785240       -2.1531396876
 H         -4.7677074256       -2.1697045408       -2.9555032308
 H         -3.5456685765       -2.0402568427       -1.9861722487
 O         -1.9326260528       -2.2665628338       -1.5434205683
 H         -2.0038619976       -2.5064416203       -0.5869977750
 H         -1.2838064880       -2.8657933226       -1.9510222224
 O         -5.8859944484       -1.1751442672        0.2108257072
 H         -5.4805049644       -1.4960675839       -0.6077788378
 H         -5.4517475819       -1.6564915423        0.9402044830
 O          1.3711879303        3.8674208610       -0.6999609427
 H          1.7936026255        3.6554289993        0.1450652426
 H          1.8751491743        3.4203357004       -1.4059235020
 O          0.3734882045        1.2705641676       -4.1367943652
 H         -0.4876119577        1.6132454091       -3.8587452211
 H          1.0475304104        1.8006075585       -3.6781988119
 O         -5.7156952494        1.4217922897        0.2062401518
 H         -5.8323147408        0.4302591574        0.2687659624
 H         -6.5986006398        1.7913033281        0.1740133711
 O         -3.6191147462       -0.4905831064        3.6756444270
 H         -2.6495843048       -0.4422839249        3.6347413852
 H         -3.9246425861        0.3550834438        3.3176789003
 O          1.8362133687       -4.0402249706       -0.4980502173
 H          1.3437781061       -3.9864996052        0.3428986571
 H          1.1842700674       -4.0169314318       -1.2126404632
 O          2.4542335390        0.1704821700       -0.7240015887
 H          2.8668160962       -0.7015479963       -0.8578185666
 H          1.5056789995        0.0151375601       -0.6928696227
 O         -2.6738384575        3.8532047975        0.7700007357
 H         -1.9215821285        4.0062562399        1.3481037028
 H         -2.3475083621        3.2179295847        0.1146273025
 O         -1.9939217099       -0.8843735677       -4.0327600087
 H         -1.2470372267       -0.3124852925       -4.2233238819
 H         -1.8740333360       -1.1512442364       -3.1115111124
